
*****
***** Welcome to the Xyce(TM) Parallel Electronic Simulator
*****
***** This is version Xyce DEVELOPMENT-202306010240-(Public_Release-7.6.0-225-g0f7f3e36)-opensource
***** Date: Thu Dec 07 20:36:20 UTC 2023


***** Executing netlist ./MFlibrary_testing/stdcellTesting/membrane_cap/mem_cap_test_1_1.cir

***** Reading and parsing netlist...
***** Setting up topology...

Netlist warning: Voltage Node (13) connected to only 1 device Terminal
Netlist warning: Voltage Node (12) does not have a DC path to ground
Netlist warning: Voltage Node (13) does not have a DC path to ground
***** Device Count Summary ...
       MEMBRANE_CAP_20PX level 1 (ADMS membrane_cap_20px)   1
       SERPENTINE_100PX_0 level 1 (ADMS serpentine_100px_0) 2
       V level 1 (Independent Voltage Source)               4
       ------------------------------------------------------
       Total Devices                                        7
***** Setting up matrix structure...
***** Number of Unknowns = 14
***** Initializing...

***** Beginning DC Operating Point Calculation...

***** Beginning Transient Calculation...

***** Percent complete: 2.1 %
***** Current system time: Thu Dec  7 20:36:20 2023
***** Estimated time to completion:  0 sec.

***** Percent complete: 4.5 %
***** Current system time: Thu Dec  7 20:36:20 2023
***** Estimated time to completion:  0 sec.

***** Percent complete: 9.3 %
***** Current system time: Thu Dec  7 20:36:20 2023
***** Estimated time to completion:  0 sec.

***** Percent complete: 18.9 %
***** Current system time: Thu Dec  7 20:36:20 2023
***** Estimated time to completion:  0 sec.

***** Percent complete: 28.9 %
***** Current system time: Thu Dec  7 20:36:20 2023
***** Estimated time to completion:  0 sec.

***** Percent complete: 38.9 %
***** Current system time: Thu Dec  7 20:36:20 2023
***** Estimated time to completion:  0 sec.

***** Percent complete: 48.9 %
***** Current system time: Thu Dec  7 20:36:20 2023
***** Estimated time to completion:  0 sec.

***** Percent complete: 58.9 %
***** Current system time: Thu Dec  7 20:36:20 2023
***** Estimated time to completion:  0 sec.

***** Percent complete: 60 %
***** Current system time: Thu Dec  7 20:36:20 2023
***** Estimated time to completion:  0 sec.

***** Percent complete: 63 %
***** Current system time: Thu Dec  7 20:36:20 2023
***** Estimated time to completion:  0 sec.

***** Percent complete: 67 %
***** Current system time: Thu Dec  7 20:36:20 2023
***** Estimated time to completion:  0 sec.

***** Percent complete: 75 %
***** Current system time: Thu Dec  7 20:36:20 2023
***** Estimated time to completion:  0 sec.

***** Percent complete: 85 %
***** Current system time: Thu Dec  7 20:36:20 2023
***** Estimated time to completion:  0 sec.

***** Percent complete: 95 %
***** Current system time: Thu Dec  7 20:36:20 2023
***** Estimated time to completion:  0 sec.

***** Problem read in and set up time: 0.00208116 seconds
 ***** DCOP time: 0.000495911 seconds.  Breakdown follows:
	Number Successful Steps Taken:		1
	Number Failed Steps Attempted:		0
	Number Jacobians Evaluated:		2
	Number Linear Solves:			2
	Number Failed Linear Solves:		0
	Number Residual Evaluations:		4
	Number Nonlinear Convergence Failures:	0
	Total Residual Load Time:		3.00407e-05 seconds
	Total Jacobian Load Time:		8.10623e-06 seconds
	Total Linear Solution Time:		6.50883e-05 seconds

 ***** Transient Stepping time: 0.00111699 seconds.  Breakdown follows:
	Number Successful Steps Taken:		18
	Number Failed Steps Attempted:		0
	Number Jacobians Evaluated:		18
	Number Linear Solves:			18
	Number Failed Linear Solves:		0
	Number Residual Evaluations:		36
	Number Nonlinear Convergence Failures:	0
	Total Residual Load Time:		0.000151396 seconds
	Total Jacobian Load Time:		4.22001e-05 seconds
	Total Linear Solution Time:		7.12872e-05 seconds


***** Solution Summary *****
	Number Successful Steps Taken:		19
	Number Failed Steps Attempted:		0
	Number Jacobians Evaluated:		20
	Number Linear Solves:			20
	Number Failed Linear Solves:		0
	Number Residual Evaluations:		40
	Number Nonlinear Convergence Failures:	0
	Total Residual Load Time:		0.000181437 seconds
	Total Jacobian Load Time:		5.03063e-05 seconds
	Total Linear Solution Time:		0.000136375 seconds


***** Total Simulation Solvers Run Time: 0.00178504 seconds
***** Total Elapsed Run Time:            0.00386119 seconds
*****
***** End of Xyce(TM) Simulation
*****

Timing summary of 1 processor
                 Stats                   Count       CPU Time              Wall Time
---------------------------------------- ----- --------------------- ---------------------
Xyce                                         1        0.007 (100.0%)        0.007 (100.0%)
  Analysis                                   1        0.002 (24.44%)        0.002 (24.46%)
    Transient                                1        0.002 (24.34%)        0.002 (24.35%)
      Nonlinear Solve                       19        0.001 (10.33%)        0.001 (10.32%)
        Residual                            40        0.000 ( 2.84%)        0.000 ( 2.86%)
        Jacobian                            20        0.000 ( 0.86%)        0.000 ( 0.85%)
        Linear Solve                        20        0.000 ( 2.09%)        0.000 ( 2.07%)
      Successful DCOP Steps                  1        0.000 ( 2.18%)        0.000 ( 2.18%)
      Successful Step                       18        0.000 ( 4.12%)        0.000 ( 4.15%)
  Netlist Import                             1        0.001 (12.98%)        0.001 (12.97%)
    Parse Context                            1        0.000 ( 1.78%)        0.000 ( 1.78%)
    Distribute Devices                       1        0.000 ( 2.70%)        0.000 ( 2.69%)
    Verify Devices                           1        0.000 ( 0.06%)        0.000 ( 0.06%)
    Instantiate                              1        0.000 ( 1.97%)        0.000 ( 1.97%)
  Late Initialization                        1        0.001 ( 8.16%)        0.001 ( 8.16%)
    Global Indices                           1        0.000 ( 0.89%)        0.000 ( 0.89%)
  Setup Matrix Structure                     1        0.000 ( 1.75%)        0.000 ( 1.75%)

