
*****
***** Welcome to the Xyce(TM) Parallel Electronic Simulator
*****
***** This is version Xyce DEVELOPMENT-202401290536-opensource
***** Date: Mon Jan 29 17:25:54 UTC 2024


***** Executing netlist ./MFlibrary_testing/stdcellTesting/membrane_cap/mem_cap_test_1_2.cir

***** Reading and parsing netlist...
***** Setting up topology...

Netlist warning: Voltage Node (13) connected to only 1 device Terminal
Netlist warning: Voltage Node (12) does not have a DC path to ground
Netlist warning: Voltage Node (13) does not have a DC path to ground
***** Device Count Summary ...
       CHANNEL level 1 (ADMS channel)                       1
       MEMBRANE_CAP_20PX level 1 (ADMS membrane_cap_20px)   1
       SERPENTINE_100PX_0 level 1 (ADMS serpentine_100px_0) 1
       V level 1 (Independent Voltage Source)               4
       ------------------------------------------------------
       Total Devices                                        7
***** Setting up matrix structure...
***** Number of Unknowns = 14
***** Initializing...

***** Beginning DC Operating Point Calculation...

***** Beginning Transient Calculation...

***** Percent complete: 1.26 %
***** Current system time: Mon Jan 29 17:25:54 2024
***** Estimated time to completion:  0 sec.

***** Percent complete: 2.54 %
***** Current system time: Mon Jan 29 17:25:54 2024
***** Estimated time to completion:  0 sec.

***** Percent complete: 5.1 %
***** Current system time: Mon Jan 29 17:25:54 2024
***** Estimated time to completion:  0 sec.

***** Percent complete: 7.66 %
***** Current system time: Mon Jan 29 17:25:54 2024
***** Estimated time to completion:  0 sec.

***** Percent complete: 9.964 %
***** Current system time: Mon Jan 29 17:25:54 2024
***** Estimated time to completion:  0 sec.

***** Percent complete: 12.0376 %
***** Current system time: Mon Jan 29 17:25:54 2024
***** Estimated time to completion:  0 sec.

***** Percent complete: 14.1112 %
***** Current system time: Mon Jan 29 17:25:54 2024
***** Estimated time to completion:  0 sec.

***** Percent complete: 16.1848 %
***** Current system time: Mon Jan 29 17:25:54 2024
***** Estimated time to completion:  0 sec.

***** Percent complete: 18.2584 %
***** Current system time: Mon Jan 29 17:25:54 2024
***** Estimated time to completion:  0 sec.

***** Percent complete: 20.332 %
***** Current system time: Mon Jan 29 17:25:54 2024
***** Estimated time to completion:  0 sec.

***** Percent complete: 22.4056 %
***** Current system time: Mon Jan 29 17:25:54 2024
***** Estimated time to completion:  0 sec.

***** Percent complete: 24.4792 %
***** Current system time: Mon Jan 29 17:25:54 2024
***** Estimated time to completion:  0 sec.

***** Percent complete: 26.5528 %
***** Current system time: Mon Jan 29 17:25:54 2024
***** Estimated time to completion:  0 sec.

***** Percent complete: 28.6264 %
***** Current system time: Mon Jan 29 17:25:54 2024
***** Estimated time to completion:  0 sec.

***** Percent complete: 30.7 %
***** Current system time: Mon Jan 29 17:25:54 2024
***** Estimated time to completion:  0 sec.

***** Percent complete: 32.7736 %
***** Current system time: Mon Jan 29 17:25:54 2024
***** Estimated time to completion:  0 sec.

***** Percent complete: 34.8472 %
***** Current system time: Mon Jan 29 17:25:54 2024
***** Estimated time to completion:  0 sec.

***** Percent complete: 36.9208 %
***** Current system time: Mon Jan 29 17:25:54 2024
***** Estimated time to completion:  0 sec.

***** Percent complete: 38.9944 %
***** Current system time: Mon Jan 29 17:25:54 2024
***** Estimated time to completion:  0 sec.

***** Percent complete: 41.068 %
***** Current system time: Mon Jan 29 17:25:54 2024
***** Estimated time to completion:  0 sec.

***** Percent complete: 43.1416 %
***** Current system time: Mon Jan 29 17:25:54 2024
***** Estimated time to completion:  0 sec.

***** Percent complete: 45.2152 %
***** Current system time: Mon Jan 29 17:25:54 2024
***** Estimated time to completion:  0 sec.

***** Percent complete: 47.2888 %
***** Current system time: Mon Jan 29 17:25:54 2024
***** Estimated time to completion:  0 sec.

***** Percent complete: 49.3624 %
***** Current system time: Mon Jan 29 17:25:54 2024
***** Estimated time to completion:  0 sec.

***** Percent complete: 53.5096 %
***** Current system time: Mon Jan 29 17:25:54 2024
***** Estimated time to completion:  0 sec.

***** Percent complete: 57.2119 %
***** Current system time: Mon Jan 29 17:25:54 2024
***** Estimated time to completion:  0 sec.

***** Percent complete: 60.1507 %
***** Current system time: Mon Jan 29 17:25:54 2024
***** Estimated time to completion:  0 sec.

***** Percent complete: 62.4958 %
***** Current system time: Mon Jan 29 17:25:54 2024
***** Estimated time to completion:  0 sec.

***** Percent complete: 64.6064 %
***** Current system time: Mon Jan 29 17:25:54 2024
***** Estimated time to completion:  0 sec.

***** Percent complete: 66.717 %
***** Current system time: Mon Jan 29 17:25:54 2024
***** Estimated time to completion:  0 sec.

***** Percent complete: 68.8276 %
***** Current system time: Mon Jan 29 17:25:54 2024
***** Estimated time to completion:  0 sec.

***** Percent complete: 70.9382 %
***** Current system time: Mon Jan 29 17:25:54 2024
***** Estimated time to completion:  0 sec.

***** Percent complete: 73.0487 %
***** Current system time: Mon Jan 29 17:25:54 2024
***** Estimated time to completion:  0 sec.

***** Percent complete: 75.1593 %
***** Current system time: Mon Jan 29 17:25:54 2024
***** Estimated time to completion:  0 sec.

***** Percent complete: 77.2699 %
***** Current system time: Mon Jan 29 17:25:54 2024
***** Estimated time to completion:  0 sec.

***** Percent complete: 79.3805 %
***** Current system time: Mon Jan 29 17:25:54 2024
***** Estimated time to completion:  0 sec.

***** Percent complete: 81.4911 %
***** Current system time: Mon Jan 29 17:25:54 2024
***** Estimated time to completion:  0 sec.

***** Percent complete: 83.6017 %
***** Current system time: Mon Jan 29 17:25:54 2024
***** Estimated time to completion:  0 sec.

***** Percent complete: 85.7123 %
***** Current system time: Mon Jan 29 17:25:54 2024
***** Estimated time to completion:  0 sec.

***** Percent complete: 87.8229 %
***** Current system time: Mon Jan 29 17:25:54 2024
***** Estimated time to completion:  0 sec.

***** Percent complete: 89.9335 %
***** Current system time: Mon Jan 29 17:25:54 2024
***** Estimated time to completion:  0 sec.

***** Percent complete: 92.0441 %
***** Current system time: Mon Jan 29 17:25:54 2024
***** Estimated time to completion:  0 sec.

***** Percent complete: 94.1547 %
***** Current system time: Mon Jan 29 17:25:54 2024
***** Estimated time to completion:  0 sec.

***** Percent complete: 96.2653 %
***** Current system time: Mon Jan 29 17:25:54 2024
***** Estimated time to completion:  0 sec.

***** Percent complete: 98.3759 %
***** Current system time: Mon Jan 29 17:25:54 2024
***** Estimated time to completion:  0 sec.

***** Problem read in and set up time: 0.00211596 seconds
 ***** DCOP time: 0.000514984 seconds.  Breakdown follows:
	Number Successful Steps Taken:		1
	Number Failed Steps Attempted:		0
	Number Jacobians Evaluated:		2
	Number Linear Solves:			2
	Number Failed Linear Solves:		0
	Number Residual Evaluations:		4
	Number Nonlinear Convergence Failures:	0
	Total Residual Load Time:		3.93391e-05 seconds
	Total Jacobian Load Time:		7.86781e-06 seconds
	Total Linear Solution Time:		6.41346e-05 seconds

 ***** Transient Stepping time: 0.00373697 seconds.  Breakdown follows:
	Number Successful Steps Taken:		51
	Number Failed Steps Attempted:		0
	Number Jacobians Evaluated:		87
	Number Linear Solves:			87
	Number Failed Linear Solves:		0
	Number Residual Evaluations:		138
	Number Nonlinear Convergence Failures:	0
	Total Residual Load Time:		0.000651836 seconds
	Total Jacobian Load Time:		0.000159264 seconds
	Total Linear Solution Time:		0.000313997 seconds


***** Solution Summary *****
	Number Successful Steps Taken:		52
	Number Failed Steps Attempted:		0
	Number Jacobians Evaluated:		89
	Number Linear Solves:			89
	Number Failed Linear Solves:		0
	Number Residual Evaluations:		142
	Number Nonlinear Convergence Failures:	0
	Total Residual Load Time:		0.000691175 seconds
	Total Jacobian Load Time:		0.000167131 seconds
	Total Linear Solution Time:		0.000378132 seconds


***** Total Simulation Solvers Run Time: 0.00442982 seconds
***** Total Elapsed Run Time:            0.00653791 seconds
*****
***** End of Xyce(TM) Simulation
*****

Timing summary of 1 processor
                 Stats                   Count       CPU Time              Wall Time
---------------------------------------- ----- --------------------- ---------------------
Xyce                                         1        0.009 (100.0%)        0.009 (100.0%)
  Analysis                                   1        0.004 (46.49%)        0.004 (46.50%)
    Transient                                1        0.004 (46.38%)        0.004 (46.39%)
      Nonlinear Solve                       52        0.002 (21.82%)        0.002 (21.75%)
        Residual                           142        0.001 ( 8.05%)        0.001 ( 7.98%)
        Jacobian                            89        0.000 ( 2.14%)        0.000 ( 2.01%)
        Linear Solve                        89        0.000 ( 4.25%)        0.000 ( 4.43%)
      Successful DCOP Steps                  1        0.000 ( 1.54%)        0.000 ( 1.54%)
      Successful Step                       51        0.001 ( 8.55%)        0.001 ( 8.59%)
  Netlist Import                             1        0.001 ( 9.89%)        0.001 ( 9.88%)
    Parse Context                            1        0.000 ( 1.55%)        0.000 ( 1.55%)
    Distribute Devices                       1        0.000 ( 2.15%)        0.000 ( 2.15%)
    Verify Devices                           1        0.000 ( 0.06%)        0.000 ( 0.08%)
    Instantiate                              1        0.000 ( 1.55%)        0.000 ( 1.56%)
  Late Initialization                        1        0.001 ( 6.04%)        0.001 ( 6.05%)
    Global Indices                           1        0.000 ( 0.64%)        0.000 ( 0.63%)
  Setup Matrix Structure                     1        0.000 ( 1.32%)        0.000 ( 1.32%)

