
*****
***** Welcome to the Xyce(TM) Parallel Electronic Simulator
*****
***** This is version Xyce DEVELOPMENT-202401290536-opensource
***** Date: Mon Jan 29 17:25:54 UTC 2024


***** Executing netlist ./MFlibrary_testing/stdcellTesting/membrane_cap/mem_cap_test_1_1.cir

***** Reading and parsing netlist...
***** Setting up topology...

Netlist warning: Voltage Node (13) connected to only 1 device Terminal
Netlist warning: Voltage Node (12) does not have a DC path to ground
Netlist warning: Voltage Node (13) does not have a DC path to ground
***** Device Count Summary ...
       MEMBRANE_CAP_20PX level 1 (ADMS membrane_cap_20px)   1
       SERPENTINE_100PX_0 level 1 (ADMS serpentine_100px_0) 2
       V level 1 (Independent Voltage Source)               4
       ------------------------------------------------------
       Total Devices                                        7
***** Setting up matrix structure...
***** Number of Unknowns = 14
***** Initializing...

***** Beginning DC Operating Point Calculation...

***** Beginning Transient Calculation...

***** Percent complete: 1.5 %
***** Current system time: Mon Jan 29 17:25:54 2024
***** Estimated time to completion:  0 sec.

***** Percent complete: 3.5 %
***** Current system time: Mon Jan 29 17:25:54 2024
***** Estimated time to completion:  0 sec.

***** Percent complete: 7.5 %
***** Current system time: Mon Jan 29 17:25:54 2024
***** Estimated time to completion:  0 sec.

***** Percent complete: 15.5 %
***** Current system time: Mon Jan 29 17:25:54 2024
***** Estimated time to completion:  0 sec.

***** Percent complete: 25.5 %
***** Current system time: Mon Jan 29 17:25:54 2024
***** Estimated time to completion:  0 sec.

***** Percent complete: 35.5 %
***** Current system time: Mon Jan 29 17:25:54 2024
***** Estimated time to completion:  0 sec.

***** Percent complete: 45.5 %
***** Current system time: Mon Jan 29 17:25:54 2024
***** Estimated time to completion:  0 sec.

***** Percent complete: 55.5 %
***** Current system time: Mon Jan 29 17:25:54 2024
***** Estimated time to completion:  0 sec.

***** Percent complete: 65.5 %
***** Current system time: Mon Jan 29 17:25:54 2024
***** Estimated time to completion:  0 sec.

***** Percent complete: 75.5 %
***** Current system time: Mon Jan 29 17:25:54 2024
***** Estimated time to completion:  0 sec.

***** Percent complete: 85.5 %
***** Current system time: Mon Jan 29 17:25:54 2024
***** Estimated time to completion:  0 sec.

***** Percent complete: 95.5 %
***** Current system time: Mon Jan 29 17:25:54 2024
***** Estimated time to completion:  0 sec.

***** Problem read in and set up time: 0.00201011 seconds
 ***** DCOP time: 0.000490904 seconds.  Breakdown follows:
	Number Successful Steps Taken:		1
	Number Failed Steps Attempted:		0
	Number Jacobians Evaluated:		1
	Number Linear Solves:			1
	Number Failed Linear Solves:		0
	Number Residual Evaluations:		3
	Number Nonlinear Convergence Failures:	0
	Total Residual Load Time:		2.7895e-05 seconds
	Total Jacobian Load Time:		5.96046e-06 seconds
	Total Linear Solution Time:		5.6982e-05 seconds

 ***** Transient Stepping time: 0.000911951 seconds.  Breakdown follows:
	Number Successful Steps Taken:		14
	Number Failed Steps Attempted:		0
	Number Jacobians Evaluated:		14
	Number Linear Solves:			14
	Number Failed Linear Solves:		0
	Number Residual Evaluations:		28
	Number Nonlinear Convergence Failures:	0
	Total Residual Load Time:		0.00012207 seconds
	Total Jacobian Load Time:		4.60148e-05 seconds
	Total Linear Solution Time:		6.29425e-05 seconds


***** Solution Summary *****
	Number Successful Steps Taken:		15
	Number Failed Steps Attempted:		0
	Number Jacobians Evaluated:		15
	Number Linear Solves:			15
	Number Failed Linear Solves:		0
	Number Residual Evaluations:		31
	Number Nonlinear Convergence Failures:	0
	Total Residual Load Time:		0.000149965 seconds
	Total Jacobian Load Time:		5.19753e-05 seconds
	Total Linear Solution Time:		0.000119925 seconds


***** Total Simulation Solvers Run Time: 0.00156116 seconds
***** Total Elapsed Run Time:            0.00356603 seconds
*****
***** End of Xyce(TM) Simulation
*****

Timing summary of 1 processor
                 Stats                   Count       CPU Time              Wall Time
---------------------------------------- ----- --------------------- ---------------------
Xyce                                         1        0.006 (100.0%)        0.006 (100.0%)
  Analysis                                   1        0.001 (16.99%)        0.002 (23.41%)
    Transient                                1        0.001 (16.89%)        0.002 (23.29%)
      Nonlinear Solve                       15        0.000 ( 8.09%)        0.001 ( 9.74%)
        Residual                            31        0.000 ( 1.68%)        0.000 ( 2.51%)
        Jacobian                            15        0.000 ( 0.75%)        0.000 ( 0.93%)
        Linear Solve                        15        0.000 ( 1.58%)        0.000 ( 1.94%)
      Successful DCOP Steps                  1        0.000 ( 2.94%)        0.000 ( 2.68%)
      Successful Step                       14        0.000 ( 2.14%)        0.000 ( 3.48%)
  Netlist Import                             1        0.001 (14.83%)        0.001 (13.49%)
    Parse Context                            1        0.000 ( 2.24%)        0.000 ( 2.05%)
    Distribute Devices                       1        0.000 ( 3.06%)        0.000 ( 2.77%)
    Verify Devices                           1        0.000 ( 0.10%)        0.000 ( 0.08%)
    Instantiate                              1        0.000 ( 2.23%)        0.000 ( 2.04%)
  Late Initialization                        1        0.001 ( 9.33%)        0.001 ( 8.48%)
    Global Indices                           1        0.000 ( 1.04%)        0.000 ( 0.93%)
  Setup Matrix Structure                     1        0.000 ( 2.14%)        0.000 ( 1.96%)

