 ****** HSPICE -- Q-2020.03-2 linux64 (Apr 27 2020) ******                      
  Copyright (c) 1986 - 2022 by Synopsys, Inc. All Rights Reserved.              
  This software and the associated documentation are proprietary
  to Synopsys, Inc. This software may only be used in accordance
  with the terms and conditions of a written license agreement with
  Synopsys, Inc. All other use, reproduction, or distribution of
  this software is strictly prohibited.
  Input File: smartT_Test_001_1.sp                                              
  Command line options: /uusoc/facility/cad_tools/Synopsys/hspice_Q-2020.03-2/hspice/linux64/hspice smartT_Test_001_1.sp -o smartT_Test_001_1/smartT_Test_001_1_o
  Start time: Mon Sep 12 16:59:30 2022
 lic:  
 lic: FLEXlm: SDK_12.6 
 lic: USER:   u1146591             HOSTNAME: lab2-22.eng.utah.edu 
 lic: HOSTID: 18c04d88fc69         PID:      1221614 
 lic: Using FLEXlm license file: 
 lic: 27000@chickasaw.eng.utah.edu 
 lic: Checkout 1 hspice 
 lic: License/Maintenance for hspice will expire on 14-mar-2024/2021.09 
 lic: 1(in_use)/50(total) FLOATING license(s) on SERVER 27000@chickasaw.eng.utah.edu 
 lic:   
 **info** *pvaI* current limit stacksize=8388608, set new limit stacksize=62914560

 Loading pVA library smartT_Test_001_1/smartT_Test_001_1_o.pvadir/pvaRTL_linux64.so...
1****** HSPICE -- Q-2020.03-2 linux64 (Apr 27 2020) ******                      
 ******  
 *smart toilet test 001

 ****** circuit name directory
 circuit number to circuit name directory
   number circuitname                     definition         multiplier
        0 main circuit
        1 x1.                             PressurePump(va)   1.00 
        2 x2.                             PressurePump(va)   1.00 
        3 x3.                             PressurePump(va)   1.00 
        4 x4.                             serpentine_300px_0(va)
                                                                 1.00 
        5 x5.                             serpentine_50px_0(va)
                                                                 1.00 
        6 x6.                             serpentine_150px_0(va)
                                                                 1.00 
        7 x7.                             diffmix_25px_0(va)
                                                                 1.00 
 **info** *pvaI* Creating VA module (diffmix_25px_0) for instance X7 with gmd reduction

 **info** *pvaI*        termCount=11 diwSize=42 probeSize=34 Qsize=0 Isize=8

 End of GMD creation on Mon Sep 12 16:59:30 2022	GTM/In-use: 6.1250/0.9885 MB


 **warning** *pvaW* (31) FPE: Encountered numerical NaN with node (c_i1,c_in1) (../../Elibrary/standardCells/Ediffmix_25px_0.va:72)

 **warning** *pvaW*           in N/A-instname(diffmix_25px_0)

 **warning** *pvaW* (31)      For a complete list of FPE warnings, please setenv PVA_ENABLE_FPE3 2

 **warning** *pvaW* (31)      For debugging, please use $strobe to print the value of signal.


 **info** *pvaI* Creating VA module (serpentine_150px_0) for instance X6 with gmd reduction

 **info** *pvaI*        termCount=5 diwSize=14 probeSize=17 Qsize=0 Isize=3

 End of GMD creation on Mon Sep 12 16:59:30 2022	GTM/In-use: 6.1250/1.0299 MB


 **info** *pvaI* Creating VA module (serpentine_50px_0) for instance X5 with gmd reduction

 **info** *pvaI*        termCount=5 diwSize=14 probeSize=17 Qsize=0 Isize=3

 End of GMD creation on Mon Sep 12 16:59:30 2022	GTM/In-use: 6.1250/1.0374 MB


 **info** *pvaI* Creating VA module (serpentine_300px_0) for instance X4 with gmd reduction

 **info** *pvaI*        termCount=5 diwSize=14 probeSize=17 Qsize=0 Isize=3

 End of GMD creation on Mon Sep 12 16:59:30 2022	GTM/In-use: 6.1250/1.0449 MB


 **info** *pvaI* Creating VA module (PressurePump) for instance X3 with gmd reduction

 **info** *pvaI*        termCount=4 diwSize=14 probeSize=7 Qsize=0 Isize=4

 End of GMD creation on Mon Sep 12 16:59:30 2022	GTM/In-use: 6.1250/1.0515 MB


 **info** *pvaI* Creating VA module (PressurePump) for instance X2 with gmd reduction

 **info** *pvaI*        termCount=4 diwSize=14 probeSize=7 Qsize=0 Isize=4

 End of GMD creation on Mon Sep 12 16:59:30 2022	GTM/In-use: 6.1250/1.0515 MB


 **info** *pvaI* Creating VA module (PressurePump) for instance X1 with gmd reduction

 **info** *pvaI*        termCount=4 diwSize=14 probeSize=7 Qsize=0 Isize=4

 End of GMD creation on Mon Sep 12 16:59:30 2022	GTM/In-use: 6.1250/1.0516 MB


  
      
 *****************************************************************
 ******  option summary
 ******
 runlvl  = 3         bypass  = 2.0000    
  Opening plot unit= 15
 file=smartT_Test_001_1/smartT_Test_001_1_o.pa0

 End of pVA setup    on Mon Sep 12 16:59:30 2022	GTM/In-use: 6.1250/1.1497 MB


 Begin of pVA simulation on Mon Sep 12 16:59:30 2022	GTM/In-use: 6.1250/1.1497 MB


 **info** dc convergence successful at Newton-Raphson method 
 ******  
 *smart toilet test 001

 ****** operating point information tnom=  25.000 temp=  25.000 ******
 ****** operating point status is voltage   simulation time is     0.     
    node    =voltage      node    =voltage      node    =voltage

 +0:c0      =   1.2713k 0:c0c     =   0.      0:c1      =  88.1015k
 +0:c1c     = 100.0000m 0:c2      =   4.8118k 0:c2c     = 100.0000m
 +0:c3c     =  24.1928m 0:sol1    = 100.0000k 0:sol1c   =   0.     
 +0:sol2    = 100.0000k 0:sol2c   = 100.0000m 0:sol3    = 100.0000k
 +0:sol3c   =   0.     

 resistance:
8.2085e+12

 resistance:
3.15712e+11

 resistance:
2.20998e+12

 resistance Mixer:
5.28498e+10
7.48241e+10
5.28498e+10
 
1.057e+11
1.27674e+11

 **info** *pvaI* minimum timestep = 1e-14


          ***** job concluded
 ******  
 *smart toilet test 001

 ****** job statistics summary tnom=  25.000 temp=  25.000 ******
  
 ******  Machine Information  ******
 CPU:
 model name	: Intel(R) Core(TM) i7-10700 CPU @ 2.90GHz
 cpu MHz	: 2900.000
  
 OS:
 Linux version 4.18.0-372.19.1.el8_6.x86_64 (mockbuild@x86-vm-07.build.eng.bos.redhat.com) (gcc version 8.5.0 20210514 (Red Hat 8.5.0-10) (GCC)) #1 SMP Mon Jul 18 11:14:02 EDT 2022


  ******  HSPICE Threads Information  ******

  Command Line Threads Count :     1
  Available CPU Count        :    16
  Actual Threads Count       :     1


  ******  Circuit Statistics  ******
  # nodes       =      19 # elements   =      10
  # resistors   =       0 # capacitors =       0 # inductors   =       0
  # mutual_inds =       0 # vccs       =       0 # vcvs        =       0
  # cccs        =       0 # ccvs       =       0 # volt_srcs   =       3
  # curr_srcs   =       0 # diodes     =       0 # bjts        =       0
  # jfets       =       0 # mosfets    =       0 # U elements  =       0
  # T elements  =       0 # W elements =       0 # B elements  =       0
  # S elements  =       0 # P elements =       0 # va device   =       7
  # vector_srcs =       0 # N elements =       0


  ******  Runtime Statistics (seconds)  ******

  analysis           time    # points   tot. iter  conv.iter
  op point           0.02           1         103
  transient          0.00         101          48          24 rev=         0
  readin             0.10
  errchk             0.01
  setup              0.02
  output             0.00


           peak memory used        435.51 megabytes
           total cpu time            0.15 seconds
           total elapsed time        0.30 seconds
           job started at     16:59:30 09/12/2022
           job ended   at     16:59:30 09/12/2022
           job total runtime         0.30 seconds


 lic: Release hspice token(s) 
 lic: total license checkout elapse time:        0.11(s)
