
*****
***** Welcome to the Xyce(TM) Parallel Electronic Simulator
*****
***** This is version Xyce DEVELOPMENT-202306010240-(Public_Release-7.6.0-225-g0f7f3e36)-opensource
***** Date: Wed Dec 06 20:18:10 UTC 2023


***** Executing netlist ./MFlibrary_testing/pumpTesting/PressurePump_test_1.cir

***** Reading and parsing netlist...
***** Setting up topology...

Netlist warning: Voltage Node (3) connected to only 1 device Terminal
Netlist warning: Voltage Node (3) does not have a DC path to ground
***** Device Count Summary ...
       CHANNEL level 1 (ADMS channel)           1
       PRESSUREPUMP level 1 (ADMS pressurePump) 1
       ------------------------------------------
       Total Devices                            2
***** Setting up matrix structure...
***** Number of Unknowns = 6
***** Initializing...

***** Beginning DC Operating Point Calculation...

***** Beginning Transient Calculation...

***** Percent complete: 1.5 %
***** Current system time: Wed Dec  6 20:18:10 2023
***** Estimated time to completion:  0 sec.

***** Percent complete: 3.5 %
***** Current system time: Wed Dec  6 20:18:10 2023
***** Estimated time to completion:  0 sec.

***** Percent complete: 7.5 %
***** Current system time: Wed Dec  6 20:18:10 2023
***** Estimated time to completion:  0 sec.

***** Percent complete: 15.5 %
***** Current system time: Wed Dec  6 20:18:10 2023
***** Estimated time to completion:  0 sec.

***** Percent complete: 25.5 %
***** Current system time: Wed Dec  6 20:18:10 2023
***** Estimated time to completion:  0 sec.

***** Percent complete: 35.5 %
***** Current system time: Wed Dec  6 20:18:10 2023
***** Estimated time to completion:  0 sec.

***** Percent complete: 45.5 %
***** Current system time: Wed Dec  6 20:18:10 2023
***** Estimated time to completion:  0 sec.

***** Percent complete: 55.5 %
***** Current system time: Wed Dec  6 20:18:10 2023
***** Estimated time to completion:  0 sec.

***** Percent complete: 65.5 %
***** Current system time: Wed Dec  6 20:18:10 2023
***** Estimated time to completion:  0 sec.

***** Percent complete: 75.5 %
***** Current system time: Wed Dec  6 20:18:10 2023
***** Estimated time to completion:  0 sec.

***** Percent complete: 85.5 %
***** Current system time: Wed Dec  6 20:18:10 2023
***** Estimated time to completion:  0 sec.

***** Percent complete: 95.5 %
***** Current system time: Wed Dec  6 20:18:10 2023
***** Estimated time to completion:  0 sec.

***** Problem read in and set up time: 0.00182104 seconds
 ***** DCOP time: 0.000452042 seconds.  Breakdown follows:
	Number Successful Steps Taken:		1
	Number Failed Steps Attempted:		0
	Number Jacobians Evaluated:		2
	Number Linear Solves:			2
	Number Failed Linear Solves:		0
	Number Residual Evaluations:		4
	Number Nonlinear Convergence Failures:	0
	Total Residual Load Time:		2.90871e-05 seconds
	Total Jacobian Load Time:		6.91414e-06 seconds
	Total Linear Solution Time:		4.91142e-05 seconds

 ***** Transient Stepping time: 0.000926971 seconds.  Breakdown follows:
	Number Successful Steps Taken:		14
	Number Failed Steps Attempted:		0
	Number Jacobians Evaluated:		14
	Number Linear Solves:			14
	Number Failed Linear Solves:		0
	Number Residual Evaluations:		28
	Number Nonlinear Convergence Failures:	0
	Total Residual Load Time:		0.000118732 seconds
	Total Jacobian Load Time:		2.90871e-05 seconds
	Total Linear Solution Time:		4.48227e-05 seconds


***** Solution Summary *****
	Number Successful Steps Taken:		15
	Number Failed Steps Attempted:		0
	Number Jacobians Evaluated:		16
	Number Linear Solves:			16
	Number Failed Linear Solves:		0
	Number Residual Evaluations:		32
	Number Nonlinear Convergence Failures:	0
	Total Residual Load Time:		0.00014782 seconds
	Total Jacobian Load Time:		3.60012e-05 seconds
	Total Linear Solution Time:		9.39369e-05 seconds


***** Total Simulation Solvers Run Time: 0.00156498 seconds
***** Total Elapsed Run Time:            0.00337815 seconds
*****
***** End of Xyce(TM) Simulation
*****

Timing summary of 1 processor
                 Stats                   Count       CPU Time              Wall Time
---------------------------------------- ----- --------------------- ---------------------
Xyce                                         1        0.006 (100.0%)        0.006 (100.0%)
  Analysis                                   1        0.001 (11.99%)        0.002 (23.46%)
    Transient                                1        0.001 (11.85%)        0.002 (23.31%)
      Nonlinear Solve                       15        0.000 ( 6.52%)        0.001 ( 9.52%)
        Residual                            32        0.000 ( 1.06%)        0.000 ( 2.52%)
        Jacobian                            16        0.000 ( 0.36%)        0.000 ( 0.65%)
        Linear Solve                        16        0.000 ( 1.13%)        0.000 ( 1.62%)
      Successful DCOP Steps                  1        0.000 ( 2.40%)        0.000 ( 2.06%)
      Successful Step                       14        0.000 ( 1.08%)        0.000 ( 3.60%)
  Netlist Import                             1        0.001 (12.82%)        0.001 (11.00%)
    Parse Context                            1        0.000 ( 2.11%)        0.000 ( 1.81%)
    Distribute Devices                       1        0.000 ( 1.80%)        0.000 ( 1.56%)
    Verify Devices                           1        0.000 ( 0.07%)        0.000 ( 0.06%)
    Instantiate                              1        0.000 ( 1.37%)        0.000 ( 1.19%)
  Late Initialization                        1        0.001 ( 9.40%)        0.001 ( 8.09%)
    Global Indices                           1        0.000 ( 0.86%)        0.000 ( 0.74%)
  Setup Matrix Structure                     1        0.000 ( 2.05%)        0.000 ( 1.76%)

