
*****
***** Welcome to the Xyce(TM) Parallel Electronic Simulator
*****
***** This is version Xyce DEVELOPMENT-202306010240-(Public_Release-7.6.0-225-g0f7f3e36)-opensource
***** Date: Thu Dec 07 20:36:20 UTC 2023


***** Executing netlist ./MFlibrary_testing/pumpTesting/PressurePump_test_1.cir

***** Reading and parsing netlist...
***** Setting up topology...

Netlist warning: Voltage Node (3) connected to only 1 device Terminal
Netlist warning: Voltage Node (3) does not have a DC path to ground
***** Device Count Summary ...
       CHANNEL level 1 (ADMS channel)           1
       PRESSUREPUMP level 1 (ADMS pressurePump) 1
       ------------------------------------------
       Total Devices                            2
***** Setting up matrix structure...
***** Number of Unknowns = 6
***** Initializing...

***** Beginning DC Operating Point Calculation...

***** Beginning Transient Calculation...

***** Percent complete: 1.5 %
***** Current system time: Thu Dec  7 20:36:20 2023
***** Estimated time to completion:  0 sec.

***** Percent complete: 3.5 %
***** Current system time: Thu Dec  7 20:36:20 2023
***** Estimated time to completion:  0 sec.

***** Percent complete: 7.5 %
***** Current system time: Thu Dec  7 20:36:20 2023
***** Estimated time to completion:  0 sec.

***** Percent complete: 15.5 %
***** Current system time: Thu Dec  7 20:36:20 2023
***** Estimated time to completion:  0 sec.

***** Percent complete: 25.5 %
***** Current system time: Thu Dec  7 20:36:20 2023
***** Estimated time to completion:  0 sec.

***** Percent complete: 35.5 %
***** Current system time: Thu Dec  7 20:36:20 2023
***** Estimated time to completion:  0 sec.

***** Percent complete: 45.5 %
***** Current system time: Thu Dec  7 20:36:20 2023
***** Estimated time to completion:  0 sec.

***** Percent complete: 55.5 %
***** Current system time: Thu Dec  7 20:36:20 2023
***** Estimated time to completion:  0 sec.

***** Percent complete: 65.5 %
***** Current system time: Thu Dec  7 20:36:20 2023
***** Estimated time to completion:  0 sec.

***** Percent complete: 75.5 %
***** Current system time: Thu Dec  7 20:36:20 2023
***** Estimated time to completion:  0 sec.

***** Percent complete: 85.5 %
***** Current system time: Thu Dec  7 20:36:20 2023
***** Estimated time to completion:  0 sec.

***** Percent complete: 95.5 %
***** Current system time: Thu Dec  7 20:36:20 2023
***** Estimated time to completion:  0 sec.

***** Problem read in and set up time: 0.00189519 seconds
 ***** DCOP time: 0.000465155 seconds.  Breakdown follows:
	Number Successful Steps Taken:		1
	Number Failed Steps Attempted:		0
	Number Jacobians Evaluated:		2
	Number Linear Solves:			2
	Number Failed Linear Solves:		0
	Number Residual Evaluations:		4
	Number Nonlinear Convergence Failures:	0
	Total Residual Load Time:		2.59876e-05 seconds
	Total Jacobian Load Time:		5.96046e-06 seconds
	Total Linear Solution Time:		5.19753e-05 seconds

 ***** Transient Stepping time: 0.000983953 seconds.  Breakdown follows:
	Number Successful Steps Taken:		14
	Number Failed Steps Attempted:		0
	Number Jacobians Evaluated:		14
	Number Linear Solves:			14
	Number Failed Linear Solves:		0
	Number Residual Evaluations:		28
	Number Nonlinear Convergence Failures:	0
	Total Residual Load Time:		0.000103474 seconds
	Total Jacobian Load Time:		2.90871e-05 seconds
	Total Linear Solution Time:		4.02927e-05 seconds


***** Solution Summary *****
	Number Successful Steps Taken:		15
	Number Failed Steps Attempted:		0
	Number Jacobians Evaluated:		16
	Number Linear Solves:			16
	Number Failed Linear Solves:		0
	Number Residual Evaluations:		32
	Number Nonlinear Convergence Failures:	0
	Total Residual Load Time:		0.000129461 seconds
	Total Jacobian Load Time:		3.50475e-05 seconds
	Total Linear Solution Time:		9.2268e-05 seconds


***** Total Simulation Solvers Run Time: 0.00170088 seconds
***** Total Elapsed Run Time:            0.00359201 seconds
*****
***** End of Xyce(TM) Simulation
*****

Timing summary of 1 processor
                 Stats                   Count       CPU Time              Wall Time
---------------------------------------- ----- --------------------- ---------------------
Xyce                                         1        0.007 (100.0%)        0.007 (100.0%)
  Analysis                                   1        0.002 (23.70%)        0.002 (23.71%)
    Transient                                1        0.002 (23.55%)        0.002 (23.57%)
      Nonlinear Solve                       15        0.001 ( 8.61%)        0.001 ( 8.54%)
        Residual                            32        0.000 ( 2.16%)        0.000 ( 2.14%)
        Jacobian                            16        0.000 ( 0.55%)        0.000 ( 0.55%)
        Linear Solve                        16        0.000 ( 1.46%)        0.000 ( 1.47%)
      Successful DCOP Steps                  1        0.000 ( 2.08%)        0.000 ( 2.10%)
      Successful Step                       14        0.000 ( 3.28%)        0.000 ( 3.33%)
  Netlist Import                             1        0.001 (11.06%)        0.001 (11.05%)
    Parse Context                            1        0.000 ( 1.66%)        0.000 ( 1.64%)
    Distribute Devices                       1        0.000 ( 1.52%)        0.000 ( 1.52%)
    Verify Devices                           1        0.000 ( 0.07%)        0.000 ( 0.07%)
    Instantiate                              1        0.000 ( 1.12%)        0.000 ( 1.12%)
  Late Initialization                        1        0.001 ( 8.07%)        0.001 ( 8.08%)
    Global Indices                           1        0.000 ( 0.77%)        0.000 ( 0.77%)
  Setup Matrix Structure                     1        0.000 ( 1.81%)        0.000 ( 1.79%)

