
*****
***** Welcome to the Xyce(TM) Parallel Electronic Simulator
*****
***** This is version Xyce DEVELOPMENT-202401290536-opensource
***** Date: Sat Feb 03 06:06:00 UTC 2024


***** Executing netlist ./MFlibrary_testing/pumpTesting/PressurePump_test_1.cir

***** Reading and parsing netlist...
***** Setting up topology...

Netlist warning: Voltage Node (3) connected to only 1 device Terminal
Netlist warning: Voltage Node (3) does not have a DC path to ground
***** Device Count Summary ...
       CHANNEL level 1 (ADMS channel)           1
       PRESSUREPUMP level 1 (ADMS pressurePump) 1
       ------------------------------------------
       Total Devices                            2
***** Setting up matrix structure...
***** Number of Unknowns = 6
***** Initializing...

***** Beginning DC Operating Point Calculation...

***** Beginning Transient Calculation...

***** Percent complete: 1.5 %
***** Current system time: Sat Feb  3 06:06:00 2024
***** Estimated time to completion:  0 sec.

***** Percent complete: 3.5 %
***** Current system time: Sat Feb  3 06:06:00 2024
***** Estimated time to completion:  0 sec.

***** Percent complete: 7.5 %
***** Current system time: Sat Feb  3 06:06:00 2024
***** Estimated time to completion:  0 sec.

***** Percent complete: 15.5 %
***** Current system time: Sat Feb  3 06:06:00 2024
***** Estimated time to completion:  0 sec.

***** Percent complete: 25.5 %
***** Current system time: Sat Feb  3 06:06:00 2024
***** Estimated time to completion:  0 sec.

***** Percent complete: 35.5 %
***** Current system time: Sat Feb  3 06:06:00 2024
***** Estimated time to completion:  0 sec.

***** Percent complete: 45.5 %
***** Current system time: Sat Feb  3 06:06:00 2024
***** Estimated time to completion:  0 sec.

***** Percent complete: 55.5 %
***** Current system time: Sat Feb  3 06:06:00 2024
***** Estimated time to completion:  0 sec.

***** Percent complete: 65.5 %
***** Current system time: Sat Feb  3 06:06:00 2024
***** Estimated time to completion:  0 sec.

***** Percent complete: 75.5 %
***** Current system time: Sat Feb  3 06:06:00 2024
***** Estimated time to completion:  0 sec.

***** Percent complete: 85.5 %
***** Current system time: Sat Feb  3 06:06:00 2024
***** Estimated time to completion:  0 sec.

***** Percent complete: 95.5 %
***** Current system time: Sat Feb  3 06:06:00 2024
***** Estimated time to completion:  0 sec.

***** Problem read in and set up time: 0.00211501 seconds
 ***** DCOP time: 0.000513077 seconds.  Breakdown follows:
	Number Successful Steps Taken:		1
	Number Failed Steps Attempted:		0
	Number Jacobians Evaluated:		2
	Number Linear Solves:			2
	Number Failed Linear Solves:		0
	Number Residual Evaluations:		4
	Number Nonlinear Convergence Failures:	0
	Total Residual Load Time:		3.19481e-05 seconds
	Total Jacobian Load Time:		6.91414e-06 seconds
	Total Linear Solution Time:		5.48363e-05 seconds

 ***** Transient Stepping time: 0.000776052 seconds.  Breakdown follows:
	Number Successful Steps Taken:		14
	Number Failed Steps Attempted:		0
	Number Jacobians Evaluated:		14
	Number Linear Solves:			14
	Number Failed Linear Solves:		0
	Number Residual Evaluations:		28
	Number Nonlinear Convergence Failures:	0
	Total Residual Load Time:		9.91821e-05 seconds
	Total Jacobian Load Time:		2.69413e-05 seconds
	Total Linear Solution Time:		3.8147e-05 seconds


***** Solution Summary *****
	Number Successful Steps Taken:		15
	Number Failed Steps Attempted:		0
	Number Jacobians Evaluated:		16
	Number Linear Solves:			16
	Number Failed Linear Solves:		0
	Number Residual Evaluations:		32
	Number Nonlinear Convergence Failures:	0
	Total Residual Load Time:		0.00013113 seconds
	Total Jacobian Load Time:		3.38554e-05 seconds
	Total Linear Solution Time:		9.29832e-05 seconds


***** Total Simulation Solvers Run Time: 0.00145507 seconds
***** Total Elapsed Run Time:            0.00356102 seconds
*****
***** End of Xyce(TM) Simulation
*****

Timing summary of 1 processor
                 Stats                   Count       CPU Time              Wall Time
---------------------------------------- ----- --------------------- ---------------------
Xyce                                         1        0.007 (100.0%)        0.007 (100.0%)
  Analysis                                   1        0.001 (20.49%)        0.001 (20.43%)
    Transient                                1        0.001 (20.33%)        0.001 (20.27%)
      Nonlinear Solve                       15        0.001 ( 8.66%)        0.001 ( 8.60%)
        Residual                            32        0.000 ( 2.06%)        0.000 ( 2.06%)
        Jacobian                            16        0.000 ( 0.57%)        0.000 ( 0.56%)
        Linear Solve                        16        0.000 ( 1.44%)        0.000 ( 1.44%)
      Successful DCOP Steps                  1        0.000 ( 2.27%)        0.000 ( 2.27%)
      Successful Step                       14        0.000 ( 2.80%)        0.000 ( 2.82%)
  Netlist Import                             1        0.001 (12.29%)        0.001 (12.24%)
    Parse Context                            1        0.000 ( 2.11%)        0.000 ( 2.10%)
    Distribute Devices                       1        0.000 ( 1.66%)        0.000 ( 1.64%)
    Verify Devices                           1        0.000 ( 0.07%)        0.000 ( 0.07%)
    Instantiate                              1        0.000 ( 1.38%)        0.000 ( 1.36%)
  Late Initialization                        1        0.001 ( 8.79%)        0.001 ( 9.08%)
    Global Indices                           1        0.000 ( 0.76%)        0.000 ( 0.76%)
  Setup Matrix Structure                     1        0.000 ( 2.11%)        0.000 ( 2.09%)

