
*****
***** Welcome to the Xyce(TM) Parallel Electronic Simulator
*****
***** This is version Xyce DEVELOPMENT-202401290536-opensource
***** Date: Mon Jan 29 17:25:54 UTC 2024


***** Executing netlist ./MFlibrary_testing/pumpTesting/PressurePump_test_1.cir

***** Reading and parsing netlist...
***** Setting up topology...

Netlist warning: Voltage Node (3) connected to only 1 device Terminal
Netlist warning: Voltage Node (3) does not have a DC path to ground
***** Device Count Summary ...
       CHANNEL level 1 (ADMS channel)           1
       PRESSUREPUMP level 1 (ADMS pressurePump) 1
       ------------------------------------------
       Total Devices                            2
***** Setting up matrix structure...
***** Number of Unknowns = 6
***** Initializing...

***** Beginning DC Operating Point Calculation...

***** Beginning Transient Calculation...

***** Percent complete: 1.5 %
***** Current system time: Mon Jan 29 17:25:54 2024
***** Estimated time to completion:  0 sec.

***** Percent complete: 3.5 %
***** Current system time: Mon Jan 29 17:25:54 2024
***** Estimated time to completion:  0 sec.

***** Percent complete: 7.5 %
***** Current system time: Mon Jan 29 17:25:54 2024
***** Estimated time to completion:  0 sec.

***** Percent complete: 15.5 %
***** Current system time: Mon Jan 29 17:25:54 2024
***** Estimated time to completion:  0 sec.

***** Percent complete: 25.5 %
***** Current system time: Mon Jan 29 17:25:54 2024
***** Estimated time to completion:  0 sec.

***** Percent complete: 35.5 %
***** Current system time: Mon Jan 29 17:25:54 2024
***** Estimated time to completion:  0 sec.

***** Percent complete: 45.5 %
***** Current system time: Mon Jan 29 17:25:54 2024
***** Estimated time to completion:  0 sec.

***** Percent complete: 55.5 %
***** Current system time: Mon Jan 29 17:25:54 2024
***** Estimated time to completion:  0 sec.

***** Percent complete: 65.5 %
***** Current system time: Mon Jan 29 17:25:54 2024
***** Estimated time to completion:  0 sec.

***** Percent complete: 75.5 %
***** Current system time: Mon Jan 29 17:25:54 2024
***** Estimated time to completion:  0 sec.

***** Percent complete: 85.5 %
***** Current system time: Mon Jan 29 17:25:54 2024
***** Estimated time to completion:  0 sec.

***** Percent complete: 95.5 %
***** Current system time: Mon Jan 29 17:25:54 2024
***** Estimated time to completion:  0 sec.

***** Problem read in and set up time: 0.00177383 seconds
 ***** DCOP time: 0.000463963 seconds.  Breakdown follows:
	Number Successful Steps Taken:		1
	Number Failed Steps Attempted:		0
	Number Jacobians Evaluated:		2
	Number Linear Solves:			2
	Number Failed Linear Solves:		0
	Number Residual Evaluations:		4
	Number Nonlinear Convergence Failures:	0
	Total Residual Load Time:		2.81334e-05 seconds
	Total Jacobian Load Time:		5.96046e-06 seconds
	Total Linear Solution Time:		5.126e-05 seconds

 ***** Transient Stepping time: 0.00077796 seconds.  Breakdown follows:
	Number Successful Steps Taken:		14
	Number Failed Steps Attempted:		0
	Number Jacobians Evaluated:		14
	Number Linear Solves:			14
	Number Failed Linear Solves:		0
	Number Residual Evaluations:		28
	Number Nonlinear Convergence Failures:	0
	Total Residual Load Time:		9.48906e-05 seconds
	Total Jacobian Load Time:		2.38419e-05 seconds
	Total Linear Solution Time:		5.00679e-05 seconds


***** Solution Summary *****
	Number Successful Steps Taken:		15
	Number Failed Steps Attempted:		0
	Number Jacobians Evaluated:		16
	Number Linear Solves:			16
	Number Failed Linear Solves:		0
	Number Residual Evaluations:		32
	Number Nonlinear Convergence Failures:	0
	Total Residual Load Time:		0.000123024 seconds
	Total Jacobian Load Time:		2.98023e-05 seconds
	Total Linear Solution Time:		0.000101328 seconds


***** Total Simulation Solvers Run Time: 0.00139403 seconds
***** Total Elapsed Run Time:            0.00316286 seconds
*****
***** End of Xyce(TM) Simulation
*****

Timing summary of 1 processor
                 Stats                   Count       CPU Time              Wall Time
---------------------------------------- ----- --------------------- ---------------------
Xyce                                         1        0.006 (100.0%)        0.006 (100.0%)
  Analysis                                   1        0.001 (22.45%)        0.001 (22.47%)
    Transient                                1        0.001 (22.32%)        0.001 (22.33%)
      Nonlinear Solve                       15        0.001 ( 9.46%)        0.001 ( 9.45%)
        Residual                            32        0.000 ( 2.25%)        0.000 ( 2.32%)
        Jacobian                            16        0.000 ( 0.63%)        0.000 ( 0.61%)
        Linear Solve                        16        0.000 ( 1.80%)        0.000 ( 1.80%)
      Successful DCOP Steps                  1        0.000 ( 2.39%)        0.000 ( 2.40%)
      Successful Step                       14        0.000 ( 3.13%)        0.000 ( 3.14%)
  Netlist Import                             1        0.001 (11.49%)        0.001 (11.46%)
    Parse Context                            1        0.000 ( 2.03%)        0.000 ( 2.03%)
    Distribute Devices                       1        0.000 ( 1.60%)        0.000 ( 1.60%)
    Verify Devices                           1        0.000 ( 0.07%)        0.000 ( 0.07%)
    Instantiate                              1        0.000 ( 1.16%)        0.000 ( 1.18%)
  Late Initialization                        1        0.000 ( 8.27%)        0.000 ( 8.29%)
    Global Indices                           1        0.000 ( 0.73%)        0.000 ( 0.73%)
  Setup Matrix Structure                     1        0.000 ( 2.00%)        0.000 ( 1.98%)

