
*****
***** Welcome to the Xyce(TM) Parallel Electronic Simulator
*****
***** This is version Xyce DEVELOPMENT-202306010240-(Public_Release-7.6.0-225-g0f7f3e36)-opensource
***** Date: Thu Dec 07 21:14:58 UTC 2023


***** Executing netlist ./MFlibrary_testing/stdcellTesting/valves/valve_test_1_3_1.cir

***** Reading and parsing netlist...
***** Setting up topology...

Netlist warning: Voltage Node (104) connected to only 1 device Terminal
Netlist warning: Voltage Node (103) does not have a DC path to ground
Netlist warning: Voltage Node (102) does not have a DC path to ground
Netlist warning: Voltage Node (104) does not have a DC path to ground
***** Device Count Summary ...
       PRESSUREPUMP level 1 (ADMS pressurePump)             1
       SERPENTINE_100PX_0 level 1 (ADMS serpentine_100px_0) 2
       V level 1 (Independent Voltage Source)               2
       VALVE_20PX_1 level 1 (ADMS valve_20px_1)             1
       ------------------------------------------------------
       Total Devices                                        6
***** Setting up matrix structure...
***** Number of Unknowns = 16
***** Initializing...

***** Beginning DC Operating Point Calculation...

***** Beginning Transient Calculation...

***** Percent complete: 1.5 %
***** Current system time: Thu Dec  7 21:14:58 2023
***** Estimated time to completion:  0 sec.

***** Percent complete: 3.1 %
***** Current system time: Thu Dec  7 21:14:58 2023
***** Estimated time to completion:  0 sec.

***** Percent complete: 6.3 %
***** Current system time: Thu Dec  7 21:14:58 2023
***** Estimated time to completion:  0 sec.

***** Percent complete: 12.7 %
***** Current system time: Thu Dec  7 21:14:58 2023
***** Estimated time to completion:  0 sec.

***** Percent complete: 20 %
***** Current system time: Thu Dec  7 21:14:58 2023
***** Estimated time to completion:  0 sec.

***** Percent complete: 23 %
***** Current system time: Thu Dec  7 21:14:58 2023
***** Estimated time to completion:  0 sec.

***** Percent complete: 27 %
***** Current system time: Thu Dec  7 21:14:58 2023
***** Estimated time to completion:  0 sec.

***** Percent complete: 29 %
***** Current system time: Thu Dec  7 21:14:58 2023
***** Estimated time to completion:  0 sec.

***** Percent complete: 30.002 %
***** Current system time: Thu Dec  7 21:14:58 2023
***** Estimated time to completion:  0 sec.

***** Percent complete: 31.802 %
***** Current system time: Thu Dec  7 21:14:58 2023
***** Estimated time to completion:  0 sec.

***** Percent complete: 33.602 %
***** Current system time: Thu Dec  7 21:14:58 2023
***** Estimated time to completion:  0 sec.

***** Percent complete: 37.202 %
***** Current system time: Thu Dec  7 21:14:58 2023
***** Estimated time to completion:  0 sec.

***** Percent complete: 44.402 %
***** Current system time: Thu Dec  7 21:14:58 2023
***** Estimated time to completion:  0 sec.

***** Percent complete: 54.402 %
***** Current system time: Thu Dec  7 21:14:58 2023
***** Estimated time to completion:  0 sec.

***** Percent complete: 60 %
***** Current system time: Thu Dec  7 21:14:58 2023
***** Estimated time to completion:  0 sec.

***** Percent complete: 63 %
***** Current system time: Thu Dec  7 21:14:58 2023
***** Estimated time to completion:  0 sec.

***** Percent complete: 67 %
***** Current system time: Thu Dec  7 21:14:58 2023
***** Estimated time to completion:  0 sec.

***** Percent complete: 75 %
***** Current system time: Thu Dec  7 21:14:58 2023
***** Estimated time to completion:  0 sec.

***** Percent complete: 85 %
***** Current system time: Thu Dec  7 21:14:58 2023
***** Estimated time to completion:  0 sec.

***** Percent complete: 95 %
***** Current system time: Thu Dec  7 21:14:58 2023
***** Estimated time to completion:  0 sec.

***** Problem read in and set up time: 0.00229287 seconds
 ***** DCOP time: 0.000576973 seconds.  Breakdown follows:
	Number Successful Steps Taken:		1
	Number Failed Steps Attempted:		0
	Number Jacobians Evaluated:		4
	Number Linear Solves:			4
	Number Failed Linear Solves:		0
	Number Residual Evaluations:		6
	Number Nonlinear Convergence Failures:	0
	Total Residual Load Time:		4.98295e-05 seconds
	Total Jacobian Load Time:		1.3113e-05 seconds
	Total Linear Solution Time:		7.12872e-05 seconds

 ***** Transient Stepping time: 0.00274992 seconds.  Breakdown follows:
	Number Successful Steps Taken:		41
	Number Failed Steps Attempted:		9
	Number Jacobians Evaluated:		53
	Number Linear Solves:			53
	Number Failed Linear Solves:		0
	Number Residual Evaluations:		103
	Number Nonlinear Convergence Failures:	0
	Total Residual Load Time:		0.000585556 seconds
	Total Jacobian Load Time:		0.000118017 seconds
	Total Linear Solution Time:		0.000196934 seconds


***** Solution Summary *****
	Number Successful Steps Taken:		42
	Number Failed Steps Attempted:		9
	Number Jacobians Evaluated:		57
	Number Linear Solves:			57
	Number Failed Linear Solves:		0
	Number Residual Evaluations:		109
	Number Nonlinear Convergence Failures:	0
	Total Residual Load Time:		0.000635386 seconds
	Total Jacobian Load Time:		0.00013113 seconds
	Total Linear Solution Time:		0.000268221 seconds


***** Total Simulation Solvers Run Time: 0.00355887 seconds
***** Total Elapsed Run Time:            0.00584602 seconds
*****
***** End of Xyce(TM) Simulation
*****

Timing summary of 1 processor
                 Stats                   Count       CPU Time              Wall Time
---------------------------------------- ----- --------------------- ---------------------
Xyce                                         1        0.005 (100.0%)        0.009 (100.0%)
  Analysis                                   1        0.000 ( 6.32%)        0.004 (38.73%)
    Transient                                1        0.000 ( 6.20%)        0.004 (38.63%)
      Nonlinear Solve                       51        0.000 ( 5.32%)        0.002 (19.34%)
        Residual                           109        0.000 ( 0.79%)        0.001 ( 7.53%)
        Jacobian                            57        0.000 ( 0.19%)        0.000 ( 1.73%)
        Linear Solve                        57        0.000 ( 1.03%)        0.000 ( 3.20%)
      Successful DCOP Steps                  1        0.000 ( 0.00%)        0.000 ( 1.81%)
      Successful Step                       41        0.000 ( 0.00%)        0.001 ( 7.25%)
      Failed Steps                           9        0.000 ( 0.00%)        0.000 ( 0.07%)
  Netlist Import                             1        0.001 (14.51%)        0.001 (11.35%)
    Parse Context                            1        0.000 ( 2.18%)        0.000 ( 1.70%)
    Distribute Devices                       1        0.000 ( 2.71%)        0.000 ( 2.12%)
    Verify Devices                           1        0.000 ( 0.08%)        0.000 ( 0.06%)
    Instantiate                              1        0.000 ( 2.48%)        0.000 ( 1.95%)
  Late Initialization                        1        0.000 ( 8.95%)        0.001 ( 7.01%)
    Global Indices                           1        0.000 ( 1.03%)        0.000 ( 0.82%)
  Setup Matrix Structure                     1        0.000 ( 1.96%)        0.000 ( 1.53%)

