
*****
***** Welcome to the Xyce(TM) Parallel Electronic Simulator
*****
***** This is version Xyce DEVELOPMENT-202306010240-(Public_Release-7.6.0-225-g0f7f3e36)-opensource
***** Date: Wed Dec 06 20:27:05 UTC 2023


***** Executing netlist ./MFlibrary_testing/stdcellTesting/valves/valve_test_1_1.cir

***** Reading and parsing netlist...
***** Setting up topology...

Netlist warning: Voltage Node (104) connected to only 1 device Terminal
Netlist warning: Voltage Node (103) does not have a DC path to ground
Netlist warning: Voltage Node (102) does not have a DC path to ground
Netlist warning: Voltage Node (104) does not have a DC path to ground
***** Device Count Summary ...
       PRESSUREPUMP level 1 (ADMS pressurePump)             1
       SERPENTINE_100PX_0 level 1 (ADMS serpentine_100px_0) 2
       V level 1 (Independent Voltage Source)               2
       VALVE_20PX_1 level 1 (ADMS valve_20px_1)             1
       ------------------------------------------------------
       Total Devices                                        6
***** Setting up matrix structure...
***** Number of Unknowns = 16
***** Initializing...

***** Beginning DC Operating Point Calculation...

***** Beginning Transient Calculation...

***** Percent complete: 1.5 %
***** Current system time: Wed Dec  6 20:27:05 2023
***** Estimated time to completion:  0 sec.

***** Percent complete: 3.1 %
***** Current system time: Wed Dec  6 20:27:05 2023
***** Estimated time to completion:  0 sec.

***** Percent complete: 6.3 %
***** Current system time: Wed Dec  6 20:27:05 2023
***** Estimated time to completion:  0 sec.

***** Percent complete: 12.7 %
***** Current system time: Wed Dec  6 20:27:05 2023
***** Estimated time to completion:  0 sec.

***** Percent complete: 20 %
***** Current system time: Wed Dec  6 20:27:05 2023
***** Estimated time to completion:  0 sec.

***** Percent complete: 23 %
***** Current system time: Wed Dec  6 20:27:05 2023
***** Estimated time to completion:  0 sec.

***** Percent complete: 27 %
***** Current system time: Wed Dec  6 20:27:05 2023
***** Estimated time to completion:  0 sec.

***** Percent complete: 35 %
***** Current system time: Wed Dec  6 20:27:05 2023
***** Estimated time to completion:  0 sec.

***** Percent complete: 45 %
***** Current system time: Wed Dec  6 20:27:05 2023
***** Estimated time to completion:  0 sec.

***** Percent complete: 55 %
***** Current system time: Wed Dec  6 20:27:05 2023
***** Estimated time to completion:  0 sec.

***** Percent complete: 60 %
***** Current system time: Wed Dec  6 20:27:05 2023
***** Estimated time to completion:  0 sec.

***** Percent complete: 63 %
***** Current system time: Wed Dec  6 20:27:05 2023
***** Estimated time to completion:  0 sec.

***** Percent complete: 67 %
***** Current system time: Wed Dec  6 20:27:05 2023
***** Estimated time to completion:  0 sec.

***** Percent complete: 75 %
***** Current system time: Wed Dec  6 20:27:05 2023
***** Estimated time to completion:  0 sec.

***** Percent complete: 85 %
***** Current system time: Wed Dec  6 20:27:05 2023
***** Estimated time to completion:  0 sec.

***** Percent complete: 95 %
***** Current system time: Wed Dec  6 20:27:05 2023
***** Estimated time to completion:  0 sec.

***** Problem read in and set up time: 0.00216103 seconds
 ***** DCOP time: 0.000532866 seconds.  Breakdown follows:
	Number Successful Steps Taken:		1
	Number Failed Steps Attempted:		0
	Number Jacobians Evaluated:		3
	Number Linear Solves:			3
	Number Failed Linear Solves:		0
	Number Residual Evaluations:		5
	Number Nonlinear Convergence Failures:	0
	Total Residual Load Time:		4.3869e-05 seconds
	Total Jacobian Load Time:		1.00136e-05 seconds
	Total Linear Solution Time:		6.69956e-05 seconds

 ***** Transient Stepping time: 0.00174403 seconds.  Breakdown follows:
	Number Successful Steps Taken:		22
	Number Failed Steps Attempted:		0
	Number Jacobians Evaluated:		22
	Number Linear Solves:			22
	Number Failed Linear Solves:		0
	Number Residual Evaluations:		44
	Number Nonlinear Convergence Failures:	0
	Total Residual Load Time:		0.000286818 seconds
	Total Jacobian Load Time:		7.03335e-05 seconds
	Total Linear Solution Time:		9.98974e-05 seconds


***** Solution Summary *****
	Number Successful Steps Taken:		23
	Number Failed Steps Attempted:		0
	Number Jacobians Evaluated:		25
	Number Linear Solves:			25
	Number Failed Linear Solves:		0
	Number Residual Evaluations:		49
	Number Nonlinear Convergence Failures:	0
	Total Residual Load Time:		0.000330687 seconds
	Total Jacobian Load Time:		8.03471e-05 seconds
	Total Linear Solution Time:		0.000166893 seconds


***** Total Simulation Solvers Run Time: 0.00256801 seconds
***** Total Elapsed Run Time:            0.00472617 seconds
*****
***** End of Xyce(TM) Simulation
*****

Timing summary of 1 processor
                 Stats                   Count       CPU Time              Wall Time
---------------------------------------- ----- --------------------- ---------------------
Xyce                                         1        0.007 (100.0%)        0.008 (100.0%)
  Analysis                                   1        0.002 (31.56%)        0.002 (31.64%)
    Transient                                1        0.002 (31.46%)        0.002 (31.54%)
      Nonlinear Solve                       23        0.001 (12.90%)        0.001 (13.13%)
        Residual                            49        0.000 ( 4.66%)        0.000 ( 4.57%)
        Jacobian                            25        0.000 ( 1.10%)        0.000 ( 1.13%)
        Linear Solve                        25        0.000 ( 2.10%)        0.000 ( 2.24%)
      Successful DCOP Steps                  1        0.000 ( 1.69%)        0.000 ( 1.91%)
      Successful Step                       22        0.000 ( 4.60%)        0.000 ( 4.57%)
  Netlist Import                             1        0.001 (10.40%)        0.001 (11.71%)
    Parse Context                            1        0.000 ( 1.45%)        0.000 ( 1.63%)
    Distribute Devices                       1        0.000 ( 2.07%)        0.000 ( 2.33%)
    Verify Devices                           1        0.000 ( 0.06%)        0.000 ( 0.06%)
    Instantiate                              1        0.000 ( 1.78%)        0.000 ( 2.01%)
  Late Initialization                        1        0.000 ( 6.87%)        0.001 ( 7.76%)
    Global Indices                           1        0.000 ( 0.96%)        0.000 ( 1.07%)
  Setup Matrix Structure                     1        0.000 ( 1.45%)        0.000 ( 1.64%)

