
*****
***** Welcome to the Xyce(TM) Parallel Electronic Simulator
*****
***** This is version Xyce DEVELOPMENT-202306010240-(Public_Release-7.6.0-225-g0f7f3e36)-opensource
***** Date: Thu Dec 07 21:14:58 UTC 2023


***** Executing netlist ./MFlibrary_testing/stdcellTesting/valves/valve_test_1_4.cir

***** Reading and parsing netlist...
***** Setting up topology...

Netlist warning: Voltage Node (104) connected to only 1 device Terminal
Netlist warning: Voltage Node (105) connected to only 1 device Terminal
Netlist warning: Voltage Node (103) connected to only 1 device Terminal
Netlist warning: Voltage Node (102) does not have a DC path to ground
Netlist warning: Voltage Node (104) does not have a DC path to ground
Netlist warning: Voltage Node (105) does not have a DC path to ground
Netlist warning: Voltage Node (103) does not have a DC path to ground
***** Device Count Summary ...
       PRESSUREPUMP level 1 (ADMS pressurePump)             1
       SERPENTINE_100PX_0 level 1 (ADMS serpentine_100px_0) 3
       V level 1 (Independent Voltage Source)               2
       VALVE_20PX_1 level 1 (ADMS valve_20px_1)             1
       ------------------------------------------------------
       Total Devices                                        7
***** Setting up matrix structure...
***** Number of Unknowns = 18
***** Initializing...

***** Beginning DC Operating Point Calculation...

***** Beginning Transient Calculation...

***** Percent complete: 1.5 %
***** Current system time: Thu Dec  7 21:14:58 2023
***** Estimated time to completion:  0 sec.

***** Percent complete: 3.1 %
***** Current system time: Thu Dec  7 21:14:58 2023
***** Estimated time to completion:  0 sec.

***** Percent complete: 6.3 %
***** Current system time: Thu Dec  7 21:14:58 2023
***** Estimated time to completion:  0 sec.

***** Percent complete: 12.7 %
***** Current system time: Thu Dec  7 21:14:58 2023
***** Estimated time to completion:  0 sec.

***** Percent complete: 20 %
***** Current system time: Thu Dec  7 21:14:58 2023
***** Estimated time to completion:  0 sec.

***** Percent complete: 23 %
***** Current system time: Thu Dec  7 21:14:58 2023
***** Estimated time to completion:  0 sec.

***** Percent complete: 27 %
***** Current system time: Thu Dec  7 21:14:58 2023
***** Estimated time to completion:  0 sec.

***** Percent complete: 35 %
***** Current system time: Thu Dec  7 21:14:58 2023
***** Estimated time to completion:  0 sec.

***** Percent complete: 45 %
***** Current system time: Thu Dec  7 21:14:58 2023
***** Estimated time to completion:  0 sec.

***** Percent complete: 47.5 %
***** Current system time: Thu Dec  7 21:14:58 2023
***** Estimated time to completion:  0 sec.

***** Percent complete: 48.75 %
***** Current system time: Thu Dec  7 21:14:58 2023
***** Estimated time to completion:  0 sec.

***** Percent complete: 49.8438 %
***** Current system time: Thu Dec  7 21:14:58 2023
***** Estimated time to completion:  0 sec.

***** Percent complete: 51.1978 %
***** Current system time: Thu Dec  7 21:14:58 2023
***** Estimated time to completion:  0 sec.

***** Percent complete: 52.3956 %
***** Current system time: Thu Dec  7 21:14:58 2023
***** Estimated time to completion:  0 sec.

***** Percent complete: 54.7912 %
***** Current system time: Thu Dec  7 21:14:58 2023
***** Estimated time to completion:  0 sec.

***** Percent complete: 59.5824 %
***** Current system time: Thu Dec  7 21:14:58 2023
***** Estimated time to completion:  0 sec.

***** Percent complete: 61.2529 %
***** Current system time: Thu Dec  7 21:14:58 2023
***** Estimated time to completion:  0 sec.

***** Percent complete: 62.9233 %
***** Current system time: Thu Dec  7 21:14:58 2023
***** Estimated time to completion:  0 sec.

***** Percent complete: 66.2643 %
***** Current system time: Thu Dec  7 21:14:58 2023
***** Estimated time to completion:  0 sec.

***** Percent complete: 72.9462 %
***** Current system time: Thu Dec  7 21:14:58 2023
***** Estimated time to completion:  0 sec.

***** Percent complete: 82.9462 %
***** Current system time: Thu Dec  7 21:14:58 2023
***** Estimated time to completion:  0 sec.

***** Percent complete: 92.9462 %
***** Current system time: Thu Dec  7 21:14:58 2023
***** Estimated time to completion:  0 sec.

***** Problem read in and set up time: 0.00216198 seconds
 ***** DCOP time: 0.000506878 seconds.  Breakdown follows:
	Number Successful Steps Taken:		1
	Number Failed Steps Attempted:		0
	Number Jacobians Evaluated:		2
	Number Linear Solves:			2
	Number Failed Linear Solves:		0
	Number Residual Evaluations:		4
	Number Nonlinear Convergence Failures:	0
	Total Residual Load Time:		4.3869e-05 seconds
	Total Jacobian Load Time:		9.29832e-06 seconds
	Total Linear Solution Time:		6.10352e-05 seconds

 ***** Transient Stepping time: 0.00542498 seconds.  Breakdown follows:
	Number Successful Steps Taken:		92
	Number Failed Steps Attempted:		25
	Number Jacobians Evaluated:		117
	Number Linear Solves:			117
	Number Failed Linear Solves:		0
	Number Residual Evaluations:		234
	Number Nonlinear Convergence Failures:	0
	Total Residual Load Time:		0.00130081 seconds
	Total Jacobian Load Time:		0.000261068 seconds
	Total Linear Solution Time:		0.000432253 seconds


***** Solution Summary *****
	Number Successful Steps Taken:		93
	Number Failed Steps Attempted:		25
	Number Jacobians Evaluated:		119
	Number Linear Solves:			119
	Number Failed Linear Solves:		0
	Number Residual Evaluations:		238
	Number Nonlinear Convergence Failures:	0
	Total Residual Load Time:		0.00134468 seconds
	Total Jacobian Load Time:		0.000270367 seconds
	Total Linear Solution Time:		0.000493288 seconds


***** Total Simulation Solvers Run Time: 0.00614309 seconds
***** Total Elapsed Run Time:            0.00829887 seconds
*****
***** End of Xyce(TM) Simulation
*****

Timing summary of 1 processor
                 Stats                   Count       CPU Time              Wall Time
---------------------------------------- ----- --------------------- ---------------------
Xyce                                         1        0.011 (100.0%)        0.012 (100.0%)
  Analysis                                   1        0.006 (54.42%)        0.006 (52.52%)
    Transient                                1        0.006 (54.34%)        0.006 (52.46%)
      Nonlinear Solve                      118        0.003 (29.42%)        0.003 (28.22%)
        Residual                           238        0.001 (13.00%)        0.001 (12.41%)
        Jacobian                           119        0.000 ( 2.70%)        0.000 ( 2.70%)
        Linear Solve                       119        0.001 ( 4.66%)        0.001 ( 4.60%)
      Successful DCOP Steps                  1        0.000 ( 1.28%)        0.000 ( 1.24%)
      Successful Step                       92        0.001 (12.29%)        0.001 (11.94%)
      Failed Steps                          25        0.000 ( 0.21%)        0.000 ( 0.20%)
  Netlist Import                             1        0.001 ( 6.29%)        0.001 ( 8.08%)
    Parse Context                            1        0.000 ( 0.88%)        0.000 ( 1.14%)
    Distribute Devices                       1        0.000 ( 1.30%)        0.000 ( 1.67%)
    Verify Devices                           1        0.000 ( 0.03%)        0.000 ( 0.02%)
    Instantiate                              1        0.000 ( 1.12%)        0.000 ( 1.44%)
  Late Initialization                        1        0.001 ( 5.12%)        0.001 ( 5.52%)
    Global Indices                           1        0.000 ( 0.57%)        0.000 ( 0.73%)
  Setup Matrix Structure                     1        0.000 ( 0.91%)        0.000 ( 1.17%)

