
*****
***** Welcome to the Xyce(TM) Parallel Electronic Simulator
*****
***** This is version Xyce DEVELOPMENT-202306010240-(Public_Release-7.6.0-225-g0f7f3e36)-opensource
***** Date: Thu Dec 07 21:14:58 UTC 2023


***** Executing netlist ./MFlibrary_testing/stdcellTesting/valves/valve_test_1_3.cir

***** Reading and parsing netlist...
***** Setting up topology...

Netlist warning: Voltage Node (104) connected to only 1 device Terminal
Netlist warning: Voltage Node (103) does not have a DC path to ground
Netlist warning: Voltage Node (102) does not have a DC path to ground
Netlist warning: Voltage Node (104) does not have a DC path to ground
***** Device Count Summary ...
       PRESSUREPUMP level 1 (ADMS pressurePump)             1
       SERPENTINE_100PX_0 level 1 (ADMS serpentine_100px_0) 2
       V level 1 (Independent Voltage Source)               2
       VALVE_20PX_1 level 1 (ADMS valve_20px_1)             1
       ------------------------------------------------------
       Total Devices                                        6
***** Setting up matrix structure...
***** Number of Unknowns = 16
***** Initializing...

***** Beginning DC Operating Point Calculation...

***** Beginning Transient Calculation...

***** Percent complete: 1.5 %
***** Current system time: Thu Dec  7 21:14:58 2023
***** Estimated time to completion:  0 sec.

***** Percent complete: 3.1 %
***** Current system time: Thu Dec  7 21:14:58 2023
***** Estimated time to completion:  0 sec.

***** Percent complete: 6.3 %
***** Current system time: Thu Dec  7 21:14:58 2023
***** Estimated time to completion:  0 sec.

***** Percent complete: 12.7 %
***** Current system time: Thu Dec  7 21:14:58 2023
***** Estimated time to completion:  0 sec.

***** Percent complete: 20 %
***** Current system time: Thu Dec  7 21:14:58 2023
***** Estimated time to completion:  0 sec.

***** Percent complete: 23 %
***** Current system time: Thu Dec  7 21:14:58 2023
***** Estimated time to completion:  0 sec.

***** Percent complete: 27 %
***** Current system time: Thu Dec  7 21:14:58 2023
***** Estimated time to completion:  0 sec.

***** Percent complete: 35 %
***** Current system time: Thu Dec  7 21:14:58 2023
***** Estimated time to completion:  0 sec.

***** Percent complete: 45 %
***** Current system time: Thu Dec  7 21:14:58 2023
***** Estimated time to completion:  0 sec.

***** Percent complete: 47.5 %
***** Current system time: Thu Dec  7 21:14:58 2023
***** Estimated time to completion:  0 sec.

***** Percent complete: 48.75 %
***** Current system time: Thu Dec  7 21:14:58 2023
***** Estimated time to completion:  0 sec.

***** Percent complete: 49.8438 %
***** Current system time: Thu Dec  7 21:14:58 2023
***** Estimated time to completion:  0 sec.

***** Percent complete: 51.0536 %
***** Current system time: Thu Dec  7 21:14:58 2023
***** Estimated time to completion:  0 sec.

***** Percent complete: 52.1072 %
***** Current system time: Thu Dec  7 21:14:58 2023
***** Estimated time to completion:  0 sec.

***** Percent complete: 54.2143 %
***** Current system time: Thu Dec  7 21:14:58 2023
***** Estimated time to completion:  0 sec.

***** Percent complete: 58.4287 %
***** Current system time: Thu Dec  7 21:14:58 2023
***** Estimated time to completion:  0 sec.

***** Percent complete: 60 %
***** Current system time: Thu Dec  7 21:14:58 2023
***** Estimated time to completion:  0 sec.

***** Percent complete: 62.5286 %
***** Current system time: Thu Dec  7 21:14:58 2023
***** Estimated time to completion:  0 sec.

***** Percent complete: 65.9001 %
***** Current system time: Thu Dec  7 21:14:58 2023
***** Estimated time to completion:  0 sec.

***** Percent complete: 72.643 %
***** Current system time: Thu Dec  7 21:14:58 2023
***** Estimated time to completion:  0 sec.

***** Percent complete: 82.643 %
***** Current system time: Thu Dec  7 21:14:58 2023
***** Estimated time to completion:  0 sec.

***** Percent complete: 92.643 %
***** Current system time: Thu Dec  7 21:14:58 2023
***** Estimated time to completion:  0 sec.

***** Problem read in and set up time: 0.00211406 seconds
 ***** DCOP time: 0.000498056 seconds.  Breakdown follows:
	Number Successful Steps Taken:		1
	Number Failed Steps Attempted:		0
	Number Jacobians Evaluated:		2
	Number Linear Solves:			2
	Number Failed Linear Solves:		0
	Number Residual Evaluations:		4
	Number Nonlinear Convergence Failures:	0
	Total Residual Load Time:		3.91006e-05 seconds
	Total Jacobian Load Time:		8.82149e-06 seconds
	Total Linear Solution Time:		5.6982e-05 seconds

 ***** Transient Stepping time: 0.00531292 seconds.  Breakdown follows:
	Number Successful Steps Taken:		92
	Number Failed Steps Attempted:		22
	Number Jacobians Evaluated:		114
	Number Linear Solves:			114
	Number Failed Linear Solves:		0
	Number Residual Evaluations:		228
	Number Nonlinear Convergence Failures:	0
	Total Residual Load Time:		0.00121307 seconds
	Total Jacobian Load Time:		0.000242233 seconds
	Total Linear Solution Time:		0.000418901 seconds


***** Solution Summary *****
	Number Successful Steps Taken:		93
	Number Failed Steps Attempted:		22
	Number Jacobians Evaluated:		116
	Number Linear Solves:			116
	Number Failed Linear Solves:		0
	Number Residual Evaluations:		232
	Number Nonlinear Convergence Failures:	0
	Total Residual Load Time:		0.00125217 seconds
	Total Jacobian Load Time:		0.000251055 seconds
	Total Linear Solution Time:		0.000475883 seconds


***** Total Simulation Solvers Run Time: 0.00604987 seconds
***** Total Elapsed Run Time:            0.00815797 seconds
*****
***** End of Xyce(TM) Simulation
*****

Timing summary of 1 processor
                 Stats                   Count       CPU Time              Wall Time
---------------------------------------- ----- --------------------- ---------------------
Xyce                                         1        0.009 (100.0%)        0.011 (100.0%)
  Analysis                                   1        0.004 (46.13%)        0.006 (52.51%)
    Transient                                1        0.004 (46.05%)        0.006 (52.43%)
      Nonlinear Solve                      115        0.002 (25.97%)        0.003 (27.57%)
        Residual                           232        0.001 (10.96%)        0.001 (11.88%)
        Jacobian                           116        0.000 ( 2.44%)        0.000 ( 2.50%)
        Linear Solve                       116        0.000 ( 4.24%)        0.001 ( 4.59%)
      Successful DCOP Steps                  1        0.000 ( 1.28%)        0.000 ( 1.25%)
      Successful Step                       92        0.001 (10.47%)        0.001 (12.25%)
      Failed Steps                          22        0.000 ( 0.25%)        0.000 ( 0.19%)
  Netlist Import                             1        0.001 ( 8.22%)        0.001 ( 8.02%)
    Parse Context                            1        0.000 ( 1.14%)        0.000 ( 1.11%)
    Distribute Devices                       1        0.000 ( 1.65%)        0.000 ( 1.61%)
    Verify Devices                           1        0.000 ( 0.04%)        0.000 ( 0.04%)
    Instantiate                              1        0.000 ( 1.41%)        0.000 ( 1.37%)
  Late Initialization                        1        0.000 ( 5.28%)        0.001 ( 5.16%)
    Global Indices                           1        0.000 ( 0.63%)        0.000 ( 0.60%)
  Setup Matrix Structure                     1        0.000 ( 1.12%)        0.000 ( 1.09%)

