
*****
***** Welcome to the Xyce(TM) Parallel Electronic Simulator
*****
***** This is version Xyce DEVELOPMENT-202306010240-(Public_Release-7.6.0-225-g0f7f3e36)-opensource
***** Date: Thu Dec 07 20:36:20 UTC 2023


***** Executing netlist ./MFlibrary_testing/stdcellTesting/valves/valve_test_1_2.cir

***** Reading and parsing netlist...
***** Setting up topology...

Netlist warning: Voltage Node (104) connected to only 1 device Terminal
Netlist warning: Voltage Node (103) does not have a DC path to ground
Netlist warning: Voltage Node (102) does not have a DC path to ground
Netlist warning: Voltage Node (104) does not have a DC path to ground
***** Device Count Summary ...
       PRESSUREPUMP level 1 (ADMS pressurePump)             1
       SERPENTINE_100PX_0 level 1 (ADMS serpentine_100px_0) 2
       V level 1 (Independent Voltage Source)               2
       VALVE_20PX_1 level 1 (ADMS valve_20px_1)             1
       ------------------------------------------------------
       Total Devices                                        6
***** Setting up matrix structure...
***** Number of Unknowns = 16
***** Initializing...

***** Beginning DC Operating Point Calculation...

***** Beginning Transient Calculation...

***** Percent complete: 1.5 %
***** Current system time: Thu Dec  7 20:36:20 2023
***** Estimated time to completion:  0 sec.

***** Percent complete: 3.1 %
***** Current system time: Thu Dec  7 20:36:20 2023
***** Estimated time to completion:  0 sec.

***** Percent complete: 6.3 %
***** Current system time: Thu Dec  7 20:36:20 2023
***** Estimated time to completion:  0 sec.

***** Percent complete: 12.7 %
***** Current system time: Thu Dec  7 20:36:20 2023
***** Estimated time to completion:  0 sec.

***** Percent complete: 20 %
***** Current system time: Thu Dec  7 20:36:20 2023
***** Estimated time to completion:  0 sec.

***** Percent complete: 23 %
***** Current system time: Thu Dec  7 20:36:20 2023
***** Estimated time to completion:  0 sec.

***** Percent complete: 27 %
***** Current system time: Thu Dec  7 20:36:20 2023
***** Estimated time to completion:  0 sec.

***** Percent complete: 35 %
***** Current system time: Thu Dec  7 20:36:20 2023
***** Estimated time to completion:  0 sec.

***** Percent complete: 45 %
***** Current system time: Thu Dec  7 20:36:20 2023
***** Estimated time to completion:  0 sec.

***** Percent complete: 55 %
***** Current system time: Thu Dec  7 20:36:20 2023
***** Estimated time to completion:  0 sec.

***** Percent complete: 60 %
***** Current system time: Thu Dec  7 20:36:20 2023
***** Estimated time to completion:  0 sec.

***** Percent complete: 63 %
***** Current system time: Thu Dec  7 20:36:20 2023
***** Estimated time to completion:  0 sec.

***** Percent complete: 67 %
***** Current system time: Thu Dec  7 20:36:20 2023
***** Estimated time to completion:  0 sec.

***** Percent complete: 75 %
***** Current system time: Thu Dec  7 20:36:20 2023
***** Estimated time to completion:  0 sec.

***** Percent complete: 85 %
***** Current system time: Thu Dec  7 20:36:20 2023
***** Estimated time to completion:  0 sec.

***** Percent complete: 95 %
***** Current system time: Thu Dec  7 20:36:20 2023
***** Estimated time to completion:  0 sec.

***** Problem read in and set up time: 0.00289512 seconds
 ***** DCOP time: 0.000716925 seconds.  Breakdown follows:
	Number Successful Steps Taken:		1
	Number Failed Steps Attempted:		0
	Number Jacobians Evaluated:		4
	Number Linear Solves:			4
	Number Failed Linear Solves:		0
	Number Residual Evaluations:		6
	Number Nonlinear Convergence Failures:	0
	Total Residual Load Time:		7.31945e-05 seconds
	Total Jacobian Load Time:		1.78814e-05 seconds
	Total Linear Solution Time:		8.79765e-05 seconds

 ***** Transient Stepping time: 0.00214195 seconds.  Breakdown follows:
	Number Successful Steps Taken:		22
	Number Failed Steps Attempted:		0
	Number Jacobians Evaluated:		22
	Number Linear Solves:			22
	Number Failed Linear Solves:		0
	Number Residual Evaluations:		44
	Number Nonlinear Convergence Failures:	0
	Total Residual Load Time:		0.000398874 seconds
	Total Jacobian Load Time:		8.55923e-05 seconds
	Total Linear Solution Time:		0.000114679 seconds


***** Solution Summary *****
	Number Successful Steps Taken:		23
	Number Failed Steps Attempted:		0
	Number Jacobians Evaluated:		26
	Number Linear Solves:			26
	Number Failed Linear Solves:		0
	Number Residual Evaluations:		50
	Number Nonlinear Convergence Failures:	0
	Total Residual Load Time:		0.000472069 seconds
	Total Jacobian Load Time:		0.000103474 seconds
	Total Linear Solution Time:		0.000202656 seconds


***** Total Simulation Solvers Run Time: 0.00311494 seconds
***** Total Elapsed Run Time:            0.00600505 seconds
*****
***** End of Xyce(TM) Simulation
*****

Timing summary of 1 processor
                 Stats                   Count       CPU Time              Wall Time
---------------------------------------- ----- --------------------- ---------------------
Xyce                                         1        0.010 (100.0%)        0.010 (100.0%)
  Analysis                                   1        0.003 (29.15%)        0.003 (29.99%)
    Transient                                1        0.003 (29.08%)        0.003 (29.89%)
      Nonlinear Solve                       23        0.001 (13.26%)        0.001 (13.86%)
        Residual                            50        0.000 ( 4.98%)        0.001 ( 5.00%)
        Jacobian                            26        0.000 ( 1.12%)        0.000 ( 1.15%)
        Linear Solve                        26        0.000 ( 2.03%)        0.000 ( 2.15%)
      Successful DCOP Steps                  1        0.000 ( 1.53%)        0.000 ( 1.78%)
      Successful Step                       22        0.000 ( 4.97%)        0.001 ( 5.00%)
  Netlist Import                             1        0.001 (12.54%)        0.001 (12.31%)
    Parse Context                            1        0.000 ( 1.80%)        0.000 ( 1.73%)
    Distribute Devices                       1        0.000 ( 2.74%)        0.000 ( 2.63%)
    Verify Devices                           1        0.000 ( 0.05%)        0.000 ( 0.05%)
    Instantiate                              1        0.000 ( 2.02%)        0.000 ( 2.15%)
  Late Initialization                        1        0.001 ( 7.07%)        0.001 ( 8.19%)
    Global Indices                           1        0.000 ( 0.93%)        0.000 ( 1.08%)
  Setup Matrix Structure                     1        0.000 ( 1.37%)        0.000 ( 1.59%)

