
*****
***** Welcome to the Xyce(TM) Parallel Electronic Simulator
*****
***** This is version Xyce DEVELOPMENT-202401290536-opensource
***** Date: Mon Jan 29 17:25:54 UTC 2024


***** Executing netlist ./MFlibrary_testing/stdcellTesting/valves/valve_test_1_1.cir

***** Reading and parsing netlist...
***** Setting up topology...

Netlist warning: Voltage Node (104) connected to only 1 device Terminal
Netlist warning: Voltage Node (103) does not have a DC path to ground
Netlist warning: Voltage Node (104) does not have a DC path to ground
Netlist warning: Voltage Node (102) does not have a DC path to ground
***** Device Count Summary ...
       PRESSUREPUMP level 1 (ADMS pressurePump)             1
       SERPENTINE_100PX_0 level 1 (ADMS serpentine_100px_0) 2
       V level 1 (Independent Voltage Source)               2
       VALVE_20PX_1 level 1 (ADMS valve_20px_1)             1
       ------------------------------------------------------
       Total Devices                                        6
***** Setting up matrix structure...
***** Number of Unknowns = 16
***** Initializing...

***** Beginning DC Operating Point Calculation...

***** Beginning Transient Calculation...

***** Percent complete: 1.5 %
***** Current system time: Mon Jan 29 17:25:54 2024
***** Estimated time to completion:  0 sec.

***** Percent complete: 3.1 %
***** Current system time: Mon Jan 29 17:25:54 2024
***** Estimated time to completion:  0 sec.

***** Percent complete: 6.3 %
***** Current system time: Mon Jan 29 17:25:54 2024
***** Estimated time to completion:  0 sec.

***** Percent complete: 12.7 %
***** Current system time: Mon Jan 29 17:25:54 2024
***** Estimated time to completion:  0 sec.

***** Percent complete: 20 %
***** Current system time: Mon Jan 29 17:25:54 2024
***** Estimated time to completion:  0 sec.

***** Percent complete: 23 %
***** Current system time: Mon Jan 29 17:25:54 2024
***** Estimated time to completion:  0 sec.

***** Percent complete: 27 %
***** Current system time: Mon Jan 29 17:25:54 2024
***** Estimated time to completion:  0 sec.

***** Percent complete: 35 %
***** Current system time: Mon Jan 29 17:25:54 2024
***** Estimated time to completion:  0 sec.

***** Percent complete: 45 %
***** Current system time: Mon Jan 29 17:25:54 2024
***** Estimated time to completion:  0 sec.

***** Percent complete: 55 %
***** Current system time: Mon Jan 29 17:25:54 2024
***** Estimated time to completion:  0 sec.

***** Percent complete: 60 %
***** Current system time: Mon Jan 29 17:25:54 2024
***** Estimated time to completion:  0 sec.

***** Percent complete: 63 %
***** Current system time: Mon Jan 29 17:25:54 2024
***** Estimated time to completion:  0 sec.

***** Percent complete: 67 %
***** Current system time: Mon Jan 29 17:25:54 2024
***** Estimated time to completion:  0 sec.

***** Percent complete: 75 %
***** Current system time: Mon Jan 29 17:25:54 2024
***** Estimated time to completion:  0 sec.

***** Percent complete: 85 %
***** Current system time: Mon Jan 29 17:25:54 2024
***** Estimated time to completion:  0 sec.

***** Percent complete: 95 %
***** Current system time: Mon Jan 29 17:25:54 2024
***** Estimated time to completion:  0 sec.

***** Problem read in and set up time: 0.00222588 seconds
 ***** DCOP time: 0.000531912 seconds.  Breakdown follows:
	Number Successful Steps Taken:		1
	Number Failed Steps Attempted:		0
	Number Jacobians Evaluated:		2
	Number Linear Solves:			2
	Number Failed Linear Solves:		0
	Number Residual Evaluations:		4
	Number Nonlinear Convergence Failures:	0
	Total Residual Load Time:		4.1008e-05 seconds
	Total Jacobian Load Time:		9.05991e-06 seconds
	Total Linear Solution Time:		6.00815e-05 seconds

 ***** Transient Stepping time: 0.00135398 seconds.  Breakdown follows:
	Number Successful Steps Taken:		22
	Number Failed Steps Attempted:		0
	Number Jacobians Evaluated:		22
	Number Linear Solves:			22
	Number Failed Linear Solves:		0
	Number Residual Evaluations:		44
	Number Nonlinear Convergence Failures:	0
	Total Residual Load Time:		0.00024271 seconds
	Total Jacobian Load Time:		5.43594e-05 seconds
	Total Linear Solution Time:		8.4877e-05 seconds


***** Solution Summary *****
	Number Successful Steps Taken:		23
	Number Failed Steps Attempted:		0
	Number Jacobians Evaluated:		24
	Number Linear Solves:			24
	Number Failed Linear Solves:		0
	Number Residual Evaluations:		48
	Number Nonlinear Convergence Failures:	0
	Total Residual Load Time:		0.000283718 seconds
	Total Jacobian Load Time:		6.34193e-05 seconds
	Total Linear Solution Time:		0.000144958 seconds


***** Total Simulation Solvers Run Time: 0.00208902 seconds
***** Total Elapsed Run Time:            0.00430894 seconds
*****
***** End of Xyce(TM) Simulation
*****

Timing summary of 1 processor
                 Stats                   Count       CPU Time              Wall Time
---------------------------------------- ----- --------------------- ---------------------
Xyce                                         1        0.007 (100.0%)        0.007 (100.0%)
  Analysis                                   1        0.002 (28.15%)        0.002 (27.81%)
    Transient                                1        0.002 (28.02%)        0.002 (27.67%)
      Nonlinear Solve                       23        0.001 (12.72%)        0.001 (12.51%)
        Residual                            48        0.000 ( 4.27%)        0.000 ( 4.27%)
        Jacobian                            24        0.000 ( 1.03%)        0.000 ( 1.06%)
        Linear Solve                        24        0.000 ( 2.14%)        0.000 ( 2.07%)
      Successful DCOP Steps                  1        0.000 ( 2.22%)        0.000 ( 2.19%)
      Successful Step                       22        0.000 ( 4.58%)        0.000 ( 4.58%)
  Netlist Import                             1        0.001 (13.72%)        0.001 (13.54%)
    Parse Context                            1        0.000 ( 2.15%)        0.000 ( 2.14%)
    Distribute Devices                       1        0.000 ( 2.67%)        0.000 ( 2.65%)
    Verify Devices                           1        0.000 ( 0.08%)        0.000 ( 0.08%)
    Instantiate                              1        0.000 ( 2.28%)        0.000 ( 2.25%)
  Late Initialization                        1        0.001 ( 8.17%)        0.001 ( 8.08%)
    Global Indices                           1        0.000 ( 0.95%)        0.000 ( 0.92%)
  Setup Matrix Structure                     1        0.000 ( 1.91%)        0.000 ( 1.89%)

