
*****
***** Welcome to the Xyce(TM) Parallel Electronic Simulator
*****
***** This is version Xyce DEVELOPMENT-202306010240-(Public_Release-7.6.0-225-g0f7f3e36)-opensource
***** Date: Thu Dec 07 20:36:20 UTC 2023


***** Executing netlist ./MFlibrary_testing/stdcellTesting/valves/valve_test_1_3.cir

***** Reading and parsing netlist...
***** Setting up topology...

Netlist warning: Voltage Node (104) connected to only 1 device Terminal
Netlist warning: Voltage Node (103) does not have a DC path to ground
Netlist warning: Voltage Node (102) does not have a DC path to ground
Netlist warning: Voltage Node (104) does not have a DC path to ground
***** Device Count Summary ...
       PRESSUREPUMP level 1 (ADMS pressurePump)             1
       SERPENTINE_100PX_0 level 1 (ADMS serpentine_100px_0) 2
       V level 1 (Independent Voltage Source)               2
       VALVE_20PX_1 level 1 (ADMS valve_20px_1)             1
       ------------------------------------------------------
       Total Devices                                        6
***** Setting up matrix structure...
***** Number of Unknowns = 16
***** Initializing...

***** Beginning DC Operating Point Calculation...

***** Beginning Transient Calculation...

***** Percent complete: 1.5 %
***** Current system time: Thu Dec  7 20:36:20 2023
***** Estimated time to completion:  0 sec.

***** Percent complete: 3.1 %
***** Current system time: Thu Dec  7 20:36:20 2023
***** Estimated time to completion:  0 sec.

***** Percent complete: 6.3 %
***** Current system time: Thu Dec  7 20:36:20 2023
***** Estimated time to completion:  0 sec.

***** Percent complete: 12.7 %
***** Current system time: Thu Dec  7 20:36:20 2023
***** Estimated time to completion:  0 sec.

***** Percent complete: 20 %
***** Current system time: Thu Dec  7 20:36:20 2023
***** Estimated time to completion:  0 sec.

***** Percent complete: 23 %
***** Current system time: Thu Dec  7 20:36:20 2023
***** Estimated time to completion:  0 sec.

***** Percent complete: 27 %
***** Current system time: Thu Dec  7 20:36:20 2023
***** Estimated time to completion:  0 sec.

***** Percent complete: 35 %
***** Current system time: Thu Dec  7 20:36:20 2023
***** Estimated time to completion:  0 sec.

***** Percent complete: 45 %
***** Current system time: Thu Dec  7 20:36:20 2023
***** Estimated time to completion:  0 sec.

***** Percent complete: 47.5 %
***** Current system time: Thu Dec  7 20:36:20 2023
***** Estimated time to completion:  0 sec.

***** Percent complete: 48.75 %
***** Current system time: Thu Dec  7 20:36:20 2023
***** Estimated time to completion:  0 sec.

***** Percent complete: 49.8438 %
***** Current system time: Thu Dec  7 20:36:20 2023
***** Estimated time to completion:  0 sec.

***** Percent complete: 51.0536 %
***** Current system time: Thu Dec  7 20:36:20 2023
***** Estimated time to completion:  0 sec.

***** Percent complete: 52.1072 %
***** Current system time: Thu Dec  7 20:36:20 2023
***** Estimated time to completion:  0 sec.

***** Percent complete: 54.2143 %
***** Current system time: Thu Dec  7 20:36:20 2023
***** Estimated time to completion:  0 sec.

***** Percent complete: 58.4287 %
***** Current system time: Thu Dec  7 20:36:20 2023
***** Estimated time to completion:  0 sec.

***** Percent complete: 60 %
***** Current system time: Thu Dec  7 20:36:20 2023
***** Estimated time to completion:  0 sec.

***** Percent complete: 62.5286 %
***** Current system time: Thu Dec  7 20:36:20 2023
***** Estimated time to completion:  0 sec.

***** Percent complete: 65.9001 %
***** Current system time: Thu Dec  7 20:36:20 2023
***** Estimated time to completion:  0 sec.

***** Percent complete: 72.643 %
***** Current system time: Thu Dec  7 20:36:20 2023
***** Estimated time to completion:  0 sec.

***** Percent complete: 82.643 %
***** Current system time: Thu Dec  7 20:36:20 2023
***** Estimated time to completion:  0 sec.

***** Percent complete: 92.643 %
***** Current system time: Thu Dec  7 20:36:20 2023
***** Estimated time to completion:  0 sec.

***** Problem read in and set up time: 0.00210309 seconds
 ***** DCOP time: 0.000486851 seconds.  Breakdown follows:
	Number Successful Steps Taken:		1
	Number Failed Steps Attempted:		0
	Number Jacobians Evaluated:		2
	Number Linear Solves:			2
	Number Failed Linear Solves:		0
	Number Residual Evaluations:		4
	Number Nonlinear Convergence Failures:	0
	Total Residual Load Time:		3.88622e-05 seconds
	Total Jacobian Load Time:		9.29832e-06 seconds
	Total Linear Solution Time:		5.88894e-05 seconds

 ***** Transient Stepping time: 0.00510502 seconds.  Breakdown follows:
	Number Successful Steps Taken:		92
	Number Failed Steps Attempted:		22
	Number Jacobians Evaluated:		114
	Number Linear Solves:			114
	Number Failed Linear Solves:		0
	Number Residual Evaluations:		228
	Number Nonlinear Convergence Failures:	0
	Total Residual Load Time:		0.00119042 seconds
	Total Jacobian Load Time:		0.000235319 seconds
	Total Linear Solution Time:		0.000405073 seconds


***** Solution Summary *****
	Number Successful Steps Taken:		93
	Number Failed Steps Attempted:		22
	Number Jacobians Evaluated:		116
	Number Linear Solves:			116
	Number Failed Linear Solves:		0
	Number Residual Evaluations:		232
	Number Nonlinear Convergence Failures:	0
	Total Residual Load Time:		0.00122929 seconds
	Total Jacobian Load Time:		0.000244617 seconds
	Total Linear Solution Time:		0.000463963 seconds


***** Total Simulation Solvers Run Time: 0.00577497 seconds
***** Total Elapsed Run Time:            0.00787306 seconds
*****
***** End of Xyce(TM) Simulation
*****

Timing summary of 1 processor
                 Stats                   Count       CPU Time              Wall Time
---------------------------------------- ----- --------------------- ---------------------
Xyce                                         1        0.008 (100.0%)        0.011 (100.0%)
  Analysis                                   1        0.003 (41.51%)        0.006 (51.27%)
    Transient                                1        0.003 (41.50%)        0.006 (51.20%)
      Nonlinear Solve                      115        0.002 (21.72%)        0.003 (27.17%)
        Residual                           232        0.001 (10.04%)        0.001 (11.78%)
        Jacobian                           116        0.000 ( 2.11%)        0.000 ( 2.49%)
        Linear Solve                       116        0.000 ( 3.58%)        0.001 ( 4.50%)
      Successful DCOP Steps                  1        0.000 ( 0.00%)        0.000 ( 1.24%)
      Successful Step                       92        0.001 (11.55%)        0.001 (11.99%)
      Failed Steps                          22        0.000 ( 0.09%)        0.000 ( 0.17%)
  Netlist Import                             1        0.001 ( 6.84%)        0.001 ( 8.14%)
    Parse Context                            1        0.000 ( 1.64%)        0.000 ( 1.11%)
    Distribute Devices                       1        0.000 ( 0.00%)        0.000 ( 1.73%)
    Verify Devices                           1        0.000 ( 0.00%)        0.000 ( 0.04%)
    Instantiate                              1        0.000 ( 0.00%)        0.000 ( 1.34%)
  Late Initialization                        1        0.000 ( 0.00%)        0.001 ( 5.31%)
    Global Indices                           1        0.000 ( 0.00%)        0.000 ( 0.64%)
  Setup Matrix Structure                     1        0.000 ( 0.00%)        0.000 ( 1.12%)

