
*****
***** Welcome to the Xyce(TM) Parallel Electronic Simulator
*****
***** This is version Xyce DEVELOPMENT-202306010240-(Public_Release-7.6.0-225-g0f7f3e36)-opensource
***** Date: Wed Dec 06 20:18:10 UTC 2023


***** Executing netlist ./MFlibrary_testing/stdcellTesting/valves/valve_test_1_1.cir

***** Reading and parsing netlist...
***** Setting up topology...

Netlist warning: Voltage Node (104) connected to only 1 device Terminal
Netlist warning: Voltage Node (103) does not have a DC path to ground
Netlist warning: Voltage Node (102) does not have a DC path to ground
Netlist warning: Voltage Node (104) does not have a DC path to ground
***** Device Count Summary ...
       PRESSUREPUMP level 1 (ADMS pressurePump)             1
       SERPENTINE_100PX_0 level 1 (ADMS serpentine_100px_0) 2
       V level 1 (Independent Voltage Source)               2
       VALVE_20PX_1 level 1 (ADMS valve_20px_1)             1
       ------------------------------------------------------
       Total Devices                                        6
***** Setting up matrix structure...
***** Number of Unknowns = 16
***** Initializing...

***** Beginning DC Operating Point Calculation...

***** Beginning Transient Calculation...

***** Percent complete: 1.5 %
***** Current system time: Wed Dec  6 20:18:10 2023
***** Estimated time to completion:  0 sec.

***** Percent complete: 3.1 %
***** Current system time: Wed Dec  6 20:18:10 2023
***** Estimated time to completion:  0 sec.

***** Percent complete: 6.3 %
***** Current system time: Wed Dec  6 20:18:10 2023
***** Estimated time to completion:  0 sec.

***** Percent complete: 12.7 %
***** Current system time: Wed Dec  6 20:18:10 2023
***** Estimated time to completion:  0 sec.

***** Percent complete: 20 %
***** Current system time: Wed Dec  6 20:18:10 2023
***** Estimated time to completion:  0 sec.

***** Percent complete: 23 %
***** Current system time: Wed Dec  6 20:18:10 2023
***** Estimated time to completion:  0 sec.

***** Percent complete: 27 %
***** Current system time: Wed Dec  6 20:18:10 2023
***** Estimated time to completion:  0 sec.

***** Percent complete: 35 %
***** Current system time: Wed Dec  6 20:18:10 2023
***** Estimated time to completion:  0 sec.

***** Percent complete: 45 %
***** Current system time: Wed Dec  6 20:18:10 2023
***** Estimated time to completion:  0 sec.

***** Percent complete: 55 %
***** Current system time: Wed Dec  6 20:18:10 2023
***** Estimated time to completion:  0 sec.

***** Percent complete: 60 %
***** Current system time: Wed Dec  6 20:18:10 2023
***** Estimated time to completion:  0 sec.

***** Percent complete: 63 %
***** Current system time: Wed Dec  6 20:18:10 2023
***** Estimated time to completion:  0 sec.

***** Percent complete: 67 %
***** Current system time: Wed Dec  6 20:18:10 2023
***** Estimated time to completion:  0 sec.

***** Percent complete: 75 %
***** Current system time: Wed Dec  6 20:18:10 2023
***** Estimated time to completion:  0 sec.

***** Percent complete: 85 %
***** Current system time: Wed Dec  6 20:18:10 2023
***** Estimated time to completion:  0 sec.

***** Percent complete: 95 %
***** Current system time: Wed Dec  6 20:18:10 2023
***** Estimated time to completion:  0 sec.

***** Problem read in and set up time: 0.00212502 seconds
 ***** DCOP time: 0.000488043 seconds.  Breakdown follows:
	Number Successful Steps Taken:		1
	Number Failed Steps Attempted:		0
	Number Jacobians Evaluated:		3
	Number Linear Solves:			3
	Number Failed Linear Solves:		0
	Number Residual Evaluations:		5
	Number Nonlinear Convergence Failures:	0
	Total Residual Load Time:		4.29153e-05 seconds
	Total Jacobian Load Time:		8.82149e-06 seconds
	Total Linear Solution Time:		6.24657e-05 seconds

 ***** Transient Stepping time: 0.0013299 seconds.  Breakdown follows:
	Number Successful Steps Taken:		22
	Number Failed Steps Attempted:		0
	Number Jacobians Evaluated:		22
	Number Linear Solves:			22
	Number Failed Linear Solves:		0
	Number Residual Evaluations:		44
	Number Nonlinear Convergence Failures:	0
	Total Residual Load Time:		0.000235558 seconds
	Total Jacobian Load Time:		6.17504e-05 seconds
	Total Linear Solution Time:		8.44002e-05 seconds


***** Solution Summary *****
	Number Successful Steps Taken:		23
	Number Failed Steps Attempted:		0
	Number Jacobians Evaluated:		25
	Number Linear Solves:			25
	Number Failed Linear Solves:		0
	Number Residual Evaluations:		49
	Number Nonlinear Convergence Failures:	0
	Total Residual Load Time:		0.000278473 seconds
	Total Jacobian Load Time:		7.05719e-05 seconds
	Total Linear Solution Time:		0.000146866 seconds


***** Total Simulation Solvers Run Time: 0.00200295 seconds
***** Total Elapsed Run Time:            0.00412297 seconds
*****
***** End of Xyce(TM) Simulation
*****

Timing summary of 1 processor
                 Stats                   Count       CPU Time              Wall Time
---------------------------------------- ----- --------------------- ---------------------
Xyce                                         1        0.004 (100.0%)        0.007 (100.0%)
  Analysis                                   1        0.000 ( 0.00%)        0.002 (27.40%)
    Transient                                1        0.000 ( 0.00%)        0.002 (27.29%)
      Nonlinear Solve                       23        0.000 ( 0.00%)        0.001 (12.60%)
        Residual                            49        0.000 ( 0.00%)        0.000 ( 4.27%)
        Jacobian                            25        0.000 ( 0.00%)        0.000 ( 1.10%)
        Linear Solve                        25        0.000 ( 0.00%)        0.000 ( 2.22%)
      Successful DCOP Steps                  1        0.000 ( 0.00%)        0.000 ( 1.86%)
      Successful Step                       22        0.000 ( 0.00%)        0.000 ( 4.35%)
  Netlist Import                             1        0.001 (12.61%)        0.001 (13.40%)
    Parse Context                            1        0.000 ( 3.11%)        0.000 ( 1.78%)
    Distribute Devices                       1        0.000 ( 0.00%)        0.000 ( 3.43%)
    Verify Devices                           1        0.000 ( 0.00%)        0.000 ( 0.06%)
    Instantiate                              1        0.000 ( 0.00%)        0.000 ( 2.07%)
  Late Initialization                        1        0.000 ( 0.00%)        0.001 ( 7.92%)
    Global Indices                           1        0.000 ( 0.00%)        0.000 ( 0.94%)
  Setup Matrix Structure                     1        0.000 ( 0.00%)        0.000 ( 1.72%)

