
*****
***** Welcome to the Xyce(TM) Parallel Electronic Simulator
*****
***** This is version Xyce DEVELOPMENT-202401290536-opensource
***** Date: Mon Jan 29 17:25:54 UTC 2024


***** Executing netlist ./MFlibrary_testing/stdcellTesting/valves/valve_test_1_2.cir

***** Reading and parsing netlist...
***** Setting up topology...

Netlist warning: Voltage Node (104) connected to only 1 device Terminal
Netlist warning: Voltage Node (103) does not have a DC path to ground
Netlist warning: Voltage Node (104) does not have a DC path to ground
Netlist warning: Voltage Node (102) does not have a DC path to ground
***** Device Count Summary ...
       PRESSUREPUMP level 1 (ADMS pressurePump)             1
       SERPENTINE_100PX_0 level 1 (ADMS serpentine_100px_0) 2
       V level 1 (Independent Voltage Source)               2
       VALVE_20PX_1 level 1 (ADMS valve_20px_1)             1
       ------------------------------------------------------
       Total Devices                                        6
***** Setting up matrix structure...
***** Number of Unknowns = 16
***** Initializing...

***** Beginning DC Operating Point Calculation...

***** Beginning Transient Calculation...

***** Percent complete: 1.5 %
***** Current system time: Mon Jan 29 17:25:54 2024
***** Estimated time to completion:  0 sec.

***** Percent complete: 3.1 %
***** Current system time: Mon Jan 29 17:25:54 2024
***** Estimated time to completion:  0 sec.

***** Percent complete: 6.3 %
***** Current system time: Mon Jan 29 17:25:54 2024
***** Estimated time to completion:  0 sec.

***** Percent complete: 12.7 %
***** Current system time: Mon Jan 29 17:25:54 2024
***** Estimated time to completion:  0 sec.

***** Percent complete: 20 %
***** Current system time: Mon Jan 29 17:25:54 2024
***** Estimated time to completion:  0 sec.

***** Percent complete: 22 %
***** Current system time: Mon Jan 29 17:25:54 2024
***** Estimated time to completion:  0 sec.

***** Percent complete: 24 %
***** Current system time: Mon Jan 29 17:25:54 2024
***** Estimated time to completion:  0 sec.

***** Percent complete: 28 %
***** Current system time: Mon Jan 29 17:25:54 2024
***** Estimated time to completion:  0 sec.

***** Percent complete: 36 %
***** Current system time: Mon Jan 29 17:25:54 2024
***** Estimated time to completion:  0 sec.

***** Percent complete: 46 %
***** Current system time: Mon Jan 29 17:25:54 2024
***** Estimated time to completion:  0 sec.

***** Percent complete: 56 %
***** Current system time: Mon Jan 29 17:25:54 2024
***** Estimated time to completion:  0 sec.

***** Percent complete: 60 %
***** Current system time: Mon Jan 29 17:25:54 2024
***** Estimated time to completion:  0 sec.

***** Percent complete: 63 %
***** Current system time: Mon Jan 29 17:25:54 2024
***** Estimated time to completion:  0 sec.

***** Percent complete: 67 %
***** Current system time: Mon Jan 29 17:25:54 2024
***** Estimated time to completion:  0 sec.

***** Percent complete: 75 %
***** Current system time: Mon Jan 29 17:25:54 2024
***** Estimated time to completion:  0 sec.

***** Percent complete: 85 %
***** Current system time: Mon Jan 29 17:25:54 2024
***** Estimated time to completion:  0 sec.

***** Percent complete: 95 %
***** Current system time: Mon Jan 29 17:25:54 2024
***** Estimated time to completion:  0 sec.

***** Problem read in and set up time: 0.00238514 seconds
 ***** DCOP time: 0.00052619 seconds.  Breakdown follows:
	Number Successful Steps Taken:		1
	Number Failed Steps Attempted:		0
	Number Jacobians Evaluated:		3
	Number Linear Solves:			3
	Number Failed Linear Solves:		0
	Number Residual Evaluations:		5
	Number Nonlinear Convergence Failures:	0
	Total Residual Load Time:		4.69685e-05 seconds
	Total Jacobian Load Time:		9.05991e-06 seconds
	Total Linear Solution Time:		6.48499e-05 seconds

 ***** Transient Stepping time: 0.00143194 seconds.  Breakdown follows:
	Number Successful Steps Taken:		23
	Number Failed Steps Attempted:		0
	Number Jacobians Evaluated:		23
	Number Linear Solves:			23
	Number Failed Linear Solves:		0
	Number Residual Evaluations:		46
	Number Nonlinear Convergence Failures:	0
	Total Residual Load Time:		0.000257254 seconds
	Total Jacobian Load Time:		6.10352e-05 seconds
	Total Linear Solution Time:		9.25064e-05 seconds


***** Solution Summary *****
	Number Successful Steps Taken:		24
	Number Failed Steps Attempted:		0
	Number Jacobians Evaluated:		26
	Number Linear Solves:			26
	Number Failed Linear Solves:		0
	Number Residual Evaluations:		51
	Number Nonlinear Convergence Failures:	0
	Total Residual Load Time:		0.000304222 seconds
	Total Jacobian Load Time:		7.00951e-05 seconds
	Total Linear Solution Time:		0.000157356 seconds


***** Total Simulation Solvers Run Time: 0.00214505 seconds
***** Total Elapsed Run Time:            0.00452113 seconds
*****
***** End of Xyce(TM) Simulation
*****

Timing summary of 1 processor
                 Stats                   Count       CPU Time              Wall Time
---------------------------------------- ----- --------------------- ---------------------
Xyce                                         1        0.000 (100.0%)        0.007 (100.0%)
  Analysis                                   1        0.000 (35.84%)        0.002 (28.61%)
    Transient                                1        0.000 (35.59%)        0.002 (28.46%)
      Nonlinear Solve                       24        0.000 ( 3.63%)        0.001 (12.98%)
        Residual                            51        0.000 ( 1.69%)        0.000 ( 4.45%)
        Jacobian                            26        0.000 ( 0.24%)        0.000 ( 1.14%)
        Linear Solve                        26        0.000 ( 0.48%)        0.000 ( 2.25%)
      Successful DCOP Steps                  1        0.000 ( 0.00%)        0.000 ( 2.03%)
      Successful Step                       23        0.000 ( 4.12%)        0.000 ( 4.55%)
  Netlist Import                             1        0.000 (42.13%)        0.001 (14.36%)
    Parse Context                            1        0.000 (24.46%)        0.000 ( 1.84%)
    Distribute Devices                       1        0.000 ( 0.00%)        0.000 ( 3.27%)
    Verify Devices                           1        0.000 ( 0.00%)        0.000 ( 0.30%)
    Instantiate                              1        0.000 ( 0.00%)        0.000 ( 2.41%)
  Late Initialization                        1        0.000 ( 0.00%)        0.001 ( 9.21%)
    Global Indices                           1        0.000 ( 0.00%)        0.000 ( 1.32%)
  Setup Matrix Structure                     1        0.000 ( 0.00%)        0.000 ( 2.11%)

