
*****
***** Welcome to the Xyce(TM) Parallel Electronic Simulator
*****
***** This is version Xyce DEVELOPMENT-202306010240-(Public_Release-7.6.0-225-g0f7f3e36)-opensource
***** Date: Wed Dec 06 20:18:10 UTC 2023


***** Executing netlist ./MFlibrary_testing/stdcellTesting/valves/valve_test_1.cir

***** Reading and parsing netlist...
***** Setting up topology...

Netlist warning: Voltage Node (104) connected to only 1 device Terminal
Netlist warning: Voltage Node (103) does not have a DC path to ground
Netlist warning: Voltage Node (102) does not have a DC path to ground
Netlist warning: Voltage Node (104) does not have a DC path to ground
***** Device Count Summary ...
       PRESSUREPUMP level 1 (ADMS pressurePump)             1
       SERPENTINE_100PX_0 level 1 (ADMS serpentine_100px_0) 2
       V level 1 (Independent Voltage Source)               2
       VALVE_20PX_1 level 1 (ADMS valve_20px_1)             1
       ------------------------------------------------------
       Total Devices                                        6
***** Setting up matrix structure...
***** Number of Unknowns = 16
***** Initializing...

***** Beginning DC Operating Point Calculation...

***** Beginning Transient Calculation...

***** Percent complete: 1.5 %
***** Current system time: Wed Dec  6 20:18:10 2023
***** Estimated time to completion:  0 sec.

***** Percent complete: 3.1 %
***** Current system time: Wed Dec  6 20:18:10 2023
***** Estimated time to completion:  0 sec.

***** Percent complete: 6.3 %
***** Current system time: Wed Dec  6 20:18:10 2023
***** Estimated time to completion:  0 sec.

***** Percent complete: 12.7 %
***** Current system time: Wed Dec  6 20:18:10 2023
***** Estimated time to completion:  0 sec.

***** Percent complete: 20 %
***** Current system time: Wed Dec  6 20:18:10 2023
***** Estimated time to completion:  0 sec.

***** Percent complete: 23 %
***** Current system time: Wed Dec  6 20:18:10 2023
***** Estimated time to completion:  0 sec.

***** Percent complete: 27 %
***** Current system time: Wed Dec  6 20:18:10 2023
***** Estimated time to completion:  0 sec.

***** Percent complete: 35 %
***** Current system time: Wed Dec  6 20:18:10 2023
***** Estimated time to completion:  0 sec.

***** Percent complete: 45 %
***** Current system time: Wed Dec  6 20:18:10 2023
***** Estimated time to completion:  0 sec.

***** Percent complete: 55 %
***** Current system time: Wed Dec  6 20:18:10 2023
***** Estimated time to completion:  0 sec.

***** Percent complete: 60 %
***** Current system time: Wed Dec  6 20:18:10 2023
***** Estimated time to completion:  0 sec.

***** Percent complete: 63 %
***** Current system time: Wed Dec  6 20:18:10 2023
***** Estimated time to completion:  0 sec.

***** Percent complete: 67 %
***** Current system time: Wed Dec  6 20:18:10 2023
***** Estimated time to completion:  0 sec.

***** Percent complete: 75 %
***** Current system time: Wed Dec  6 20:18:10 2023
***** Estimated time to completion:  0 sec.

***** Percent complete: 85 %
***** Current system time: Wed Dec  6 20:18:10 2023
***** Estimated time to completion:  0 sec.

***** Percent complete: 95 %
***** Current system time: Wed Dec  6 20:18:10 2023
***** Estimated time to completion:  0 sec.

***** Problem read in and set up time: 0.00212097 seconds
 ***** DCOP time: 0.000499964 seconds.  Breakdown follows:
	Number Successful Steps Taken:		1
	Number Failed Steps Attempted:		0
	Number Jacobians Evaluated:		2
	Number Linear Solves:			2
	Number Failed Linear Solves:		0
	Number Residual Evaluations:		4
	Number Nonlinear Convergence Failures:	0
	Total Residual Load Time:		3.88622e-05 seconds
	Total Jacobian Load Time:		8.82149e-06 seconds
	Total Linear Solution Time:		5.91278e-05 seconds

 ***** Transient Stepping time: 0.00136113 seconds.  Breakdown follows:
	Number Successful Steps Taken:		22
	Number Failed Steps Attempted:		0
	Number Jacobians Evaluated:		22
	Number Linear Solves:			22
	Number Failed Linear Solves:		0
	Number Residual Evaluations:		44
	Number Nonlinear Convergence Failures:	0
	Total Residual Load Time:		0.000241041 seconds
	Total Jacobian Load Time:		5.53131e-05 seconds
	Total Linear Solution Time:		8.41618e-05 seconds


***** Solution Summary *****
	Number Successful Steps Taken:		23
	Number Failed Steps Attempted:		0
	Number Jacobians Evaluated:		24
	Number Linear Solves:			24
	Number Failed Linear Solves:		0
	Number Residual Evaluations:		48
	Number Nonlinear Convergence Failures:	0
	Total Residual Load Time:		0.000279903 seconds
	Total Jacobian Load Time:		6.41346e-05 seconds
	Total Linear Solution Time:		0.00014329 seconds


***** Total Simulation Solvers Run Time: 0.00204206 seconds
***** Total Elapsed Run Time:            0.00415492 seconds
*****
***** End of Xyce(TM) Simulation
*****

Timing summary of 1 processor
                 Stats                   Count       CPU Time              Wall Time
---------------------------------------- ----- --------------------- ---------------------
Xyce                                         1        0.007 (100.0%)        0.007 (100.0%)
  Analysis                                   1        0.002 (27.30%)        0.002 (27.31%)
    Transient                                1        0.002 (27.16%)        0.002 (27.17%)
      Nonlinear Solve                       23        0.001 (12.51%)        0.001 (12.44%)
        Residual                            48        0.000 ( 4.16%)        0.000 ( 4.14%)
        Jacobian                            24        0.000 ( 1.07%)        0.000 ( 1.12%)
        Linear Solve                        24        0.000 ( 2.04%)        0.000 ( 2.04%)
      Successful DCOP Steps                  1        0.000 ( 1.89%)        0.000 ( 1.89%)
      Successful Step                       22        0.000 ( 4.34%)        0.000 ( 4.41%)
  Netlist Import                             1        0.001 (12.56%)        0.001 (12.55%)
    Parse Context                            1        0.000 ( 1.81%)        0.000 ( 1.82%)
    Distribute Devices                       1        0.000 ( 2.51%)        0.000 ( 2.51%)
    Verify Devices                           1        0.000 ( 0.11%)        0.000 ( 0.11%)
    Instantiate                              1        0.000 ( 2.15%)        0.000 ( 2.15%)
  Late Initialization                        1        0.001 ( 8.04%)        0.001 ( 8.06%)
    Global Indices                           1        0.000 ( 0.96%)        0.000 ( 0.96%)
  Setup Matrix Structure                     1        0.000 ( 1.82%)        0.000 ( 1.82%)

