
*****
***** Welcome to the Xyce(TM) Parallel Electronic Simulator
*****
***** This is version Xyce DEVELOPMENT-202306010240-(Public_Release-7.6.0-225-g0f7f3e36)-opensource
***** Date: Thu Dec 07 21:14:58 UTC 2023


***** Executing netlist ./MFlibrary_testing/pCellTesting/channel_test.cir

***** Reading and parsing netlist...
***** Setting up topology...

Netlist warning: Voltage Node (3) connected to only 1 device Terminal
Netlist warning: Voltage Node (3) does not have a DC path to ground
***** Device Count Summary ...
       CHANNEL level 1 (ADMS channel)           1
       PRESSUREPUMP level 1 (ADMS pressurePump) 1
       ------------------------------------------
       Total Devices                            2
***** Setting up matrix structure...
***** Number of Unknowns = 6
***** Initializing...

***** Beginning DC Operating Point Calculation...

***** Beginning Transient Calculation...

***** Percent complete: 1.5 %
***** Current system time: Thu Dec  7 21:14:58 2023
***** Estimated time to completion:  0 sec.

***** Percent complete: 3.5 %
***** Current system time: Thu Dec  7 21:14:58 2023
***** Estimated time to completion:  0 sec.

***** Percent complete: 7.5 %
***** Current system time: Thu Dec  7 21:14:58 2023
***** Estimated time to completion:  0 sec.

***** Percent complete: 15.5 %
***** Current system time: Thu Dec  7 21:14:58 2023
***** Estimated time to completion:  0 sec.

***** Percent complete: 25.5 %
***** Current system time: Thu Dec  7 21:14:58 2023
***** Estimated time to completion:  0 sec.

***** Percent complete: 35.5 %
***** Current system time: Thu Dec  7 21:14:58 2023
***** Estimated time to completion:  0 sec.

***** Percent complete: 45.5 %
***** Current system time: Thu Dec  7 21:14:58 2023
***** Estimated time to completion:  0 sec.

***** Percent complete: 55.5 %
***** Current system time: Thu Dec  7 21:14:58 2023
***** Estimated time to completion:  0 sec.

***** Percent complete: 65.5 %
***** Current system time: Thu Dec  7 21:14:58 2023
***** Estimated time to completion:  0 sec.

***** Percent complete: 75.5 %
***** Current system time: Thu Dec  7 21:14:58 2023
***** Estimated time to completion:  0 sec.

***** Percent complete: 85.5 %
***** Current system time: Thu Dec  7 21:14:58 2023
***** Estimated time to completion:  0 sec.

***** Percent complete: 95.5 %
***** Current system time: Thu Dec  7 21:14:58 2023
***** Estimated time to completion:  0 sec.

***** Problem read in and set up time: 0.00191498 seconds
 ***** DCOP time: 0.000509977 seconds.  Breakdown follows:
	Number Successful Steps Taken:		1
	Number Failed Steps Attempted:		0
	Number Jacobians Evaluated:		2
	Number Linear Solves:			2
	Number Failed Linear Solves:		0
	Number Residual Evaluations:		4
	Number Nonlinear Convergence Failures:	0
	Total Residual Load Time:		2.71797e-05 seconds
	Total Jacobian Load Time:		6.91414e-06 seconds
	Total Linear Solution Time:		5.19753e-05 seconds

 ***** Transient Stepping time: 0.000833988 seconds.  Breakdown follows:
	Number Successful Steps Taken:		14
	Number Failed Steps Attempted:		0
	Number Jacobians Evaluated:		14
	Number Linear Solves:			14
	Number Failed Linear Solves:		0
	Number Residual Evaluations:		28
	Number Nonlinear Convergence Failures:	0
	Total Residual Load Time:		0.000101089 seconds
	Total Jacobian Load Time:		2.40803e-05 seconds
	Total Linear Solution Time:		4.12464e-05 seconds


***** Solution Summary *****
	Number Successful Steps Taken:		15
	Number Failed Steps Attempted:		0
	Number Jacobians Evaluated:		16
	Number Linear Solves:			16
	Number Failed Linear Solves:		0
	Number Residual Evaluations:		32
	Number Nonlinear Convergence Failures:	0
	Total Residual Load Time:		0.000128269 seconds
	Total Jacobian Load Time:		3.09944e-05 seconds
	Total Linear Solution Time:		9.32217e-05 seconds


***** Total Simulation Solvers Run Time: 0.00152707 seconds
***** Total Elapsed Run Time:            0.0034349 seconds
*****
***** End of Xyce(TM) Simulation
*****

Timing summary of 1 processor
                 Stats                   Count       CPU Time              Wall Time
---------------------------------------- ----- --------------------- ---------------------
Xyce                                         1        0.005 (100.0%)        0.007 (100.0%)
  Analysis                                   1        0.000 ( 1.10%)        0.001 (22.14%)
    Transient                                1        0.000 ( 0.92%)        0.001 (22.01%)
      Nonlinear Solve                       15        0.000 ( 0.00%)        0.001 ( 9.12%)
        Residual                            32        0.000 ( 0.00%)        0.000 ( 2.12%)
        Jacobian                            16        0.000 ( 0.00%)        0.000 ( 0.55%)
        Linear Solve                        16        0.000 ( 0.00%)        0.000 ( 1.48%)
      Successful DCOP Steps                  1        0.000 ( 0.00%)        0.000 ( 2.30%)
      Successful Step                       14        0.000 ( 0.00%)        0.000 ( 3.28%)
  Netlist Import                             1        0.001 (14.54%)        0.001 (11.30%)
    Parse Context                            1        0.000 ( 2.70%)        0.000 ( 2.10%)
    Distribute Devices                       1        0.000 ( 2.00%)        0.000 ( 1.56%)
    Verify Devices                           1        0.000 ( 0.40%)        0.000 ( 0.31%)
    Instantiate                              1        0.000 ( 1.52%)        0.000 ( 1.18%)
  Late Initialization                        1        0.001 (10.51%)        0.001 ( 8.19%)
    Global Indices                           1        0.000 ( 0.94%)        0.000 ( 0.75%)
  Setup Matrix Structure                     1        0.000 ( 2.35%)        0.000 ( 1.84%)

