
*****
***** Welcome to the Xyce(TM) Parallel Electronic Simulator
*****
***** This is version Xyce DEVELOPMENT-202306010240-(Public_Release-7.6.0-225-g0f7f3e36)-opensource
***** Date: Wed Dec 06 20:27:04 UTC 2023


***** Executing netlist ./MFlibrary_testing/pCellTesting/channel_test.cir

***** Reading and parsing netlist...
***** Setting up topology...

Netlist warning: Voltage Node (3) connected to only 1 device Terminal
Netlist warning: Voltage Node (3) does not have a DC path to ground
***** Device Count Summary ...
       CHANNEL level 1 (ADMS channel)           1
       PRESSUREPUMP level 1 (ADMS pressurePump) 1
       ------------------------------------------
       Total Devices                            2
***** Setting up matrix structure...
***** Number of Unknowns = 6
***** Initializing...

***** Beginning DC Operating Point Calculation...

***** Beginning Transient Calculation...

***** Percent complete: 1.5 %
***** Current system time: Wed Dec  6 20:27:04 2023
***** Estimated time to completion:  0 sec.

***** Percent complete: 3.5 %
***** Current system time: Wed Dec  6 20:27:04 2023
***** Estimated time to completion:  0 sec.

***** Percent complete: 7.5 %
***** Current system time: Wed Dec  6 20:27:04 2023
***** Estimated time to completion:  0 sec.

***** Percent complete: 15.5 %
***** Current system time: Wed Dec  6 20:27:04 2023
***** Estimated time to completion:  0 sec.

***** Percent complete: 25.5 %
***** Current system time: Wed Dec  6 20:27:04 2023
***** Estimated time to completion:  0 sec.

***** Percent complete: 35.5 %
***** Current system time: Wed Dec  6 20:27:04 2023
***** Estimated time to completion:  0 sec.

***** Percent complete: 45.5 %
***** Current system time: Wed Dec  6 20:27:04 2023
***** Estimated time to completion:  0 sec.

***** Percent complete: 55.5 %
***** Current system time: Wed Dec  6 20:27:04 2023
***** Estimated time to completion:  0 sec.

***** Percent complete: 65.5 %
***** Current system time: Wed Dec  6 20:27:04 2023
***** Estimated time to completion:  0 sec.

***** Percent complete: 75.5 %
***** Current system time: Wed Dec  6 20:27:04 2023
***** Estimated time to completion:  0 sec.

***** Percent complete: 85.5 %
***** Current system time: Wed Dec  6 20:27:04 2023
***** Estimated time to completion:  0 sec.

***** Percent complete: 95.5 %
***** Current system time: Wed Dec  6 20:27:04 2023
***** Estimated time to completion:  0 sec.

***** Problem read in and set up time: 0.00243807 seconds
 ***** DCOP time: 0.000633001 seconds.  Breakdown follows:
	Number Successful Steps Taken:		1
	Number Failed Steps Attempted:		0
	Number Jacobians Evaluated:		2
	Number Linear Solves:			2
	Number Failed Linear Solves:		0
	Number Residual Evaluations:		4
	Number Nonlinear Convergence Failures:	0
	Total Residual Load Time:		4.31538e-05 seconds
	Total Jacobian Load Time:		7.86781e-06 seconds
	Total Linear Solution Time:		6.58035e-05 seconds

 ***** Transient Stepping time: 0.00112295 seconds.  Breakdown follows:
	Number Successful Steps Taken:		14
	Number Failed Steps Attempted:		0
	Number Jacobians Evaluated:		14
	Number Linear Solves:			14
	Number Failed Linear Solves:		0
	Number Residual Evaluations:		28
	Number Nonlinear Convergence Failures:	0
	Total Residual Load Time:		0.000154495 seconds
	Total Jacobian Load Time:		3.48091e-05 seconds
	Total Linear Solution Time:		5.50747e-05 seconds


***** Solution Summary *****
	Number Successful Steps Taken:		15
	Number Failed Steps Attempted:		0
	Number Jacobians Evaluated:		16
	Number Linear Solves:			16
	Number Failed Linear Solves:		0
	Number Residual Evaluations:		32
	Number Nonlinear Convergence Failures:	0
	Total Residual Load Time:		0.000197649 seconds
	Total Jacobian Load Time:		4.26769e-05 seconds
	Total Linear Solution Time:		0.000120878 seconds


***** Total Simulation Solvers Run Time: 0.00196195 seconds
***** Total Elapsed Run Time:            0.00439501 seconds
*****
***** End of Xyce(TM) Simulation
*****

Timing summary of 1 processor
                 Stats                   Count       CPU Time              Wall Time
---------------------------------------- ----- --------------------- ---------------------
Xyce                                         1        0.008 (100.0%)        0.008 (100.0%)
  Analysis                                   1        0.002 (24.28%)        0.002 (22.79%)
    Transient                                1        0.002 (24.14%)        0.002 (22.66%)
      Nonlinear Solve                       15        0.001 (10.65%)        0.001 (10.02%)
        Residual                            32        0.000 ( 2.78%)        0.000 ( 2.57%)
        Jacobian                            16        0.000 ( 0.68%)        0.000 ( 0.62%)
        Linear Solve                        16        0.000 ( 1.66%)        0.000 ( 1.55%)
      Successful DCOP Steps                  1        0.000 ( 2.14%)        0.000 ( 2.00%)
      Successful Step                       14        0.000 ( 3.58%)        0.000 ( 3.38%)
  Netlist Import                             1        0.001 ( 9.40%)        0.001 (10.98%)
    Parse Context                            1        0.000 ( 1.63%)        0.000 ( 1.91%)
    Distribute Devices                       1        0.000 ( 1.43%)        0.000 ( 1.68%)
    Verify Devices                           1        0.000 ( 0.05%)        0.000 ( 0.06%)
    Instantiate                              1        0.000 ( 0.98%)        0.000 ( 1.16%)
  Late Initialization                        1        0.001 ( 9.26%)        0.001 ( 8.94%)
    Global Indices                           1        0.000 ( 0.62%)        0.000 ( 0.73%)
  Setup Matrix Structure                     1        0.000 ( 2.06%)        0.000 ( 1.93%)

