 ****** HSPICE -- Q-2020.03-2 linux64 (Apr 27 2020) ******                      
  Copyright (c) 1986 - 2022 by Synopsys, Inc. All Rights Reserved.              
  This software and the associated documentation are proprietary
  to Synopsys, Inc. This software may only be used in accordance
  with the terms and conditions of a written license agreement with
  Synopsys, Inc. All other use, reproduction, or distribution of
  this software is strictly prohibited.
  Input File: Mixer_Test_001.sp                                                 
  Command line options: /uusoc/facility/cad_tools/Synopsys/hspice_Q-2020.03-2/hspice/linux64/hspice Mixer_Test_001.sp -o Mixer_Test_001/Mixer_Test_001_o
  Start time: Tue Sep  6 20:04:11 2022
 lic:  
 lic: FLEXlm: SDK_12.6 
 lic: USER:   u1146591             HOSTNAME: lab2-21.eng.utah.edu 
 lic: HOSTID: 18c04d8e31bd         PID:      963659 
 lic: Using FLEXlm license file: 
 lic: 27000@chickasaw.eng.utah.edu 
 lic: Checkout 1 hspice 
 lic: License/Maintenance for hspice will expire on 14-mar-2024/2021.09 
 lic: 1(in_use)/50(total) FLOATING license(s) on SERVER 27000@chickasaw.eng.utah.edu 
 lic:   
 **info** *pvaI* current limit stacksize=8388608, set new limit stacksize=62914560

 **info** *pvaI* Module (PressurePump): 2 unexpanded port, 0 init, 2 behav, 2 contrib, 6/0 expr(s)

 **info** *pvaI*        No DIS, 0/0 afCount, 0 MT, dlg, IO(0/0/0/0)

 **info** *pvaI*        0 gmdIsThreadSafe 

 **info** *pvaI*        0 const-G and 0 const-C, No switchBranch, 22 bypassOpt, 0 bus2scalar, 0 vwb

 **info** *pvaI*        set_va_exp = 80 [80.0, 704.0] set by default

 **info** *pvaI*        Port direction output of 'fl_out' is coerced to inout (../../Elibrary/EPrPump.va:8)

 **info** *pvaI*        Port direction output of 'c_out' is coerced to inout (../../Elibrary/EPrPump.va:8)

 **info** *pvaI*        generated 2 flow node(s) during compilation.

 **info** *pvaI* Module (Channel): 4 unexpanded port, 10 init, 2 behav, 2 contrib, 25/0 expr(s)

 **info** *pvaI*        Has DIS(AE ST IB SB), 0/0 afCount, 0 MT, dlg, IO(0/1/1/1)

 **info** *pvaI*        0 gmdIsThreadSafe (AE ST IB SB)

 **info** *pvaI*        0 const-G and 0 const-C, No switchBranch, 22 bypassOpt, 0 bus2scalar, 0 vwb

 **info** *pvaI*        set_va_exp = 80 [80.0, 704.0] set by default

 **info** *pvaI*        generated 1 flow node(s) during compilation.

 **info** *pvaI* Module (TJunction): 6 unexpanded port, 21 init, 5 behav, 5 contrib, 25/0 expr(s)

 **info** *pvaI*        Has DIS(AE ST IB SB), 0/0 afCount, 0 MT, dlg, IO(0/1/1/1)

 **info** *pvaI*        0 gmdIsThreadSafe (AE ST IB SB)

 **info** *pvaI*        0 const-G and 0 const-C, No switchBranch, 22 bypassOpt, 0 bus2scalar, 0 vwb

 **info** *pvaI*        set_va_exp = 80 [80.0, 704.0] set by default

 **info** *pvaI*        Port direction input of 'fl_i1' is coerced to inout (../../Elibrary/ETJunction.va:11)

 **info** *pvaI*        Port direction input of 'fl_i2' is coerced to inout (../../Elibrary/ETJunction.va:11)

 **info** *pvaI*        Port direction <unknown> of 'fl_out' is coerced to inout (../../Elibrary/ETJunction.va:11)

 **info** *pvaI*        Port direction output of 'c_i1' is coerced to inout (../../Elibrary/ETJunction.va:11)

 **info** *pvaI*        Port direction output of 'c_i2' is coerced to inout (../../Elibrary/ETJunction.va:11)

 **info** *pvaI*        Port direction output of 'c_out' is coerced to inout (../../Elibrary/ETJunction.va:11)

 **info** *pvaI*        generated 3 flow node(s) during compilation.

 **info** *pvaI* #### Total 494 line-size(s), 56/0 expr(s), 9 contr(s), 31 init(s), 9 behav(s), 12 port(s)

 Loading pVA library Mixer_Test_001/Mixer_Test_001_o.pvadir/pvaRTL_linux64.so...
1****** HSPICE -- Q-2020.03-2 linux64 (Apr 27 2020) ******                      
 ******  
 *basic channel and pump test

 ****** circuit name directory
 circuit number to circuit name directory
   number circuitname                     definition         multiplier
        0 main circuit
        1 x1.                             PressurePump(va)   1.00 
        2 x2.                             PressurePump(va)   1.00 
        3 x3.                             Channel(va)        1.00 
        4 x4.                             TJunction(va)      1.00 
 **info** *pvaI* Creating VA module (TJunction) for instance X4 with gmd reduction

 **info** *pvaI*        termCount=11 diwSize=42 probeSize=34 Qsize=0 Isize=8

 End of GMD creation on Tue Sep  6 20:04:11 2022	GTM/In-use: 4.2500/0.8359 MB


 **warning** *pvaW* (31) FPE: Encountered numerical NaN with node (c_i1,c_in1) (../../Elibrary/ETJunction.va:72)

 **warning** *pvaW*           in N/A-instname(TJunction)

 **warning** *pvaW* (31)      For a complete list of FPE warnings, please setenv PVA_ENABLE_FPE3 2

 **warning** *pvaW* (31)      For debugging, please use $strobe to print the value of signal.


 **info** *pvaI* Creating VA module (Channel) for instance X3 with gmd reduction

 **info** *pvaI*        termCount=5 diwSize=14 probeSize=17 Qsize=0 Isize=3

 End of GMD creation on Tue Sep  6 20:04:11 2022	GTM/In-use: 4.2500/0.8772 MB


 **info** *pvaI* Creating VA module (PressurePump) for instance X2 with gmd reduction

 **info** *pvaI*        termCount=4 diwSize=14 probeSize=7 Qsize=0 Isize=4

 End of GMD creation on Tue Sep  6 20:04:11 2022	GTM/In-use: 4.2500/0.8838 MB


  
      
 *****************************************************************
 ******  option summary
 ******
 runlvl  = 3         bypass  = 2.0000    
  Opening plot unit= 15
 file=Mixer_Test_001/Mixer_Test_001_o.pa0

 End of pVA setup    on Tue Sep  6 20:04:11 2022	GTM/In-use: 4.2500/0.9825 MB


 Begin of pVA simulation on Tue Sep  6 20:04:11 2022	GTM/In-use: 4.2500/0.9825 MB


 **info** dc convergence successful at Newton-Raphson method 
 ******  
 *basic channel and pump test

 ****** operating point information tnom=  25.000 temp=  25.000 ******
 ****** operating point status is voltage   simulation time is     0.     
    node    =voltage      node    =voltage      node    =voltage

 +0:c1      = 100.0000m 0:c2      = 100.0000m 0:cm1     = 100.0000m
 +0:co      = 100.0000m 0:p1      = 100.0000k 0:p2      = 100.0000k
 +0:pm1     =  49.8904k

 resistance:
1.3847e+12

 resistance Mixer:
1.39078e+12
1.39078e+12
1.39078e+12
 
2.78157e+12
2.78157e+12

 **info** *pvaI* minimum timestep = 1e-14


          ***** job concluded
 ******  
 *basic channel and pump test

 ****** job statistics summary tnom=  25.000 temp=  25.000 ******
  
 ******  Machine Information  ******
 CPU:
 model name	: Intel(R) Core(TM) i7-10700 CPU @ 2.90GHz
 cpu MHz	: 2900.000
  
 OS:
 Linux version 4.18.0-372.19.1.el8_6.x86_64 (mockbuild@x86-vm-07.build.eng.bos.redhat.com) (gcc version 8.5.0 20210514 (Red Hat 8.5.0-10) (GCC)) #1 SMP Mon Jul 18 11:14:02 EDT 2022


  ******  HSPICE Threads Information  ******

  Command Line Threads Count :     1
  Available CPU Count        :    16
  Actual Threads Count       :     1


  ******  Circuit Statistics  ******
  # nodes       =      13 # elements   =       7
  # resistors   =       0 # capacitors =       0 # inductors   =       0
  # mutual_inds =       0 # vccs       =       0 # vcvs        =       0
  # cccs        =       0 # ccvs       =       0 # volt_srcs   =       3
  # curr_srcs   =       0 # diodes     =       0 # bjts        =       0
  # jfets       =       0 # mosfets    =       0 # U elements  =       0
  # T elements  =       0 # W elements =       0 # B elements  =       0
  # S elements  =       0 # P elements =       0 # va device   =       4
  # vector_srcs =       0 # N elements =       0


  ******  Runtime Statistics (seconds)  ******

  analysis           time    # points   tot. iter  conv.iter
  op point           0.03           1         103
  transient          0.00         801          50          25 rev=         0
  readin             0.72
  errchk             0.01
  setup              0.03
  output             0.00


           peak memory used        428.61 megabytes
           total cpu time            0.78 seconds
           total elapsed time        0.93 seconds
           job started at     20:04:11 09/06/2022
           job ended   at     20:04:11 09/06/2022
           job total runtime         0.93 seconds


 lic: Release hspice token(s) 
 lic: total license checkout elapse time:        0.11(s)
