
*****
***** Welcome to the Xyce(TM) Parallel Electronic Simulator
*****
***** This is version Xyce DEVELOPMENT-202306010240-(Public_Release-7.6.0-225-g0f7f3e36)-opensource
***** Date: Thu Dec 07 20:36:20 UTC 2023


***** Executing netlist ./MFlibrary_testing/stdcellTesting/serpentine/serp100_test_1.cir

***** Reading and parsing netlist...
***** Setting up topology...

Netlist warning: Voltage Node (4) connected to only 1 device Terminal
Netlist warning: Voltage Node (3) does not have a DC path to ground
Netlist warning: Voltage Node (4) does not have a DC path to ground
***** Device Count Summary ...
       PRESSUREPUMP level 1 (ADMS pressurePump)             1
       SERPENTINE_100PX_0 level 1 (ADMS serpentine_100px_0) 2
       ------------------------------------------------------
       Total Devices                                        3
***** Setting up matrix structure...
***** Number of Unknowns = 9
***** Initializing...

***** Beginning DC Operating Point Calculation...

***** Beginning Transient Calculation...

***** Percent complete: 1.5 %
***** Current system time: Thu Dec  7 20:36:20 2023
***** Estimated time to completion:  0 sec.

***** Percent complete: 3.5 %
***** Current system time: Thu Dec  7 20:36:20 2023
***** Estimated time to completion:  0 sec.

***** Percent complete: 7.5 %
***** Current system time: Thu Dec  7 20:36:20 2023
***** Estimated time to completion:  0 sec.

***** Percent complete: 15.5 %
***** Current system time: Thu Dec  7 20:36:20 2023
***** Estimated time to completion:  0 sec.

***** Percent complete: 25.5 %
***** Current system time: Thu Dec  7 20:36:20 2023
***** Estimated time to completion:  0 sec.

***** Percent complete: 35.5 %
***** Current system time: Thu Dec  7 20:36:20 2023
***** Estimated time to completion:  0 sec.

***** Percent complete: 45.5 %
***** Current system time: Thu Dec  7 20:36:20 2023
***** Estimated time to completion:  0 sec.

***** Percent complete: 55.5 %
***** Current system time: Thu Dec  7 20:36:20 2023
***** Estimated time to completion:  0 sec.

***** Percent complete: 65.5 %
***** Current system time: Thu Dec  7 20:36:20 2023
***** Estimated time to completion:  0 sec.

***** Percent complete: 75.5 %
***** Current system time: Thu Dec  7 20:36:20 2023
***** Estimated time to completion:  0 sec.

***** Percent complete: 85.5 %
***** Current system time: Thu Dec  7 20:36:20 2023
***** Estimated time to completion:  0 sec.

***** Percent complete: 95.5 %
***** Current system time: Thu Dec  7 20:36:20 2023
***** Estimated time to completion:  0 sec.

***** Problem read in and set up time: 0.00199509 seconds
 ***** DCOP time: 0.000538111 seconds.  Breakdown follows:
	Number Successful Steps Taken:		1
	Number Failed Steps Attempted:		0
	Number Jacobians Evaluated:		2
	Number Linear Solves:			2
	Number Failed Linear Solves:		0
	Number Residual Evaluations:		4
	Number Nonlinear Convergence Failures:	0
	Total Residual Load Time:		2.98023e-05 seconds
	Total Jacobian Load Time:		5.96046e-06 seconds
	Total Linear Solution Time:		4.88758e-05 seconds

 ***** Transient Stepping time: 0.000869036 seconds.  Breakdown follows:
	Number Successful Steps Taken:		14
	Number Failed Steps Attempted:		0
	Number Jacobians Evaluated:		14
	Number Linear Solves:			14
	Number Failed Linear Solves:		0
	Number Residual Evaluations:		28
	Number Nonlinear Convergence Failures:	0
	Total Residual Load Time:		0.000106573 seconds
	Total Jacobian Load Time:		2.67029e-05 seconds
	Total Linear Solution Time:		3.76701e-05 seconds


***** Solution Summary *****
	Number Successful Steps Taken:		15
	Number Failed Steps Attempted:		0
	Number Jacobians Evaluated:		16
	Number Linear Solves:			16
	Number Failed Linear Solves:		0
	Number Residual Evaluations:		32
	Number Nonlinear Convergence Failures:	0
	Total Residual Load Time:		0.000136375 seconds
	Total Jacobian Load Time:		3.26633e-05 seconds
	Total Linear Solution Time:		8.65459e-05 seconds


***** Total Simulation Solvers Run Time: 0.00158215 seconds
***** Total Elapsed Run Time:            0.00357199 seconds
*****
***** End of Xyce(TM) Simulation
*****

Timing summary of 1 processor
                 Stats                   Count       CPU Time              Wall Time
---------------------------------------- ----- --------------------- ---------------------
Xyce                                         1        0.003 (100.0%)        0.007 (100.0%)
  Analysis                                   1        0.002 (50.43%)        0.002 (22.82%)
    Transient                                1        0.002 (50.16%)        0.002 (22.70%)
      Nonlinear Solve                       15        0.001 (19.35%)        0.001 ( 8.71%)
        Residual                            32        0.000 ( 4.89%)        0.000 ( 2.21%)
        Jacobian                            16        0.000 ( 1.28%)        0.000 ( 0.57%)
        Linear Solve                        16        0.000 ( 3.06%)        0.000 ( 1.36%)
      Successful DCOP Steps                  1        0.000 ( 6.31%)        0.000 ( 2.87%)
      Successful Step                       14        0.000 ( 6.83%)        0.000 ( 3.10%)
  Netlist Import                             1        0.001 (18.30%)        0.001 (10.79%)
    Parse Context                            1        0.000 ( 2.92%)        0.000 ( 1.75%)
    Distribute Devices                       1        0.000 ( 2.69%)        0.000 ( 1.64%)
    Verify Devices                           1        0.000 ( 0.10%)        0.000 ( 0.07%)
    Instantiate                              1        0.000 ( 2.07%)        0.000 ( 1.25%)
  Late Initialization                        1        0.001 (22.60%)        0.001 (10.20%)
    Global Indices                           1        0.000 ( 3.38%)        0.000 ( 1.52%)
  Setup Matrix Structure                     1        0.000 ( 4.96%)        0.000 ( 2.24%)

