
*****
***** Welcome to the Xyce(TM) Parallel Electronic Simulator
*****
***** This is version Xyce DEVELOPMENT-202306010240-(Public_Release-7.6.0-225-g0f7f3e36)-opensource
***** Date: Wed Dec 06 20:18:10 UTC 2023


***** Executing netlist ./MFlibrary_testing/stdcellTesting/serpentine/serp100_test_1.cir

***** Reading and parsing netlist...
***** Setting up topology...

Netlist warning: Voltage Node (4) connected to only 1 device Terminal
Netlist warning: Voltage Node (3) does not have a DC path to ground
Netlist warning: Voltage Node (4) does not have a DC path to ground
***** Device Count Summary ...
       PRESSUREPUMP level 1 (ADMS pressurePump)             1
       SERPENTINE_100PX_0 level 1 (ADMS serpentine_100px_0) 2
       ------------------------------------------------------
       Total Devices                                        3
***** Setting up matrix structure...
***** Number of Unknowns = 9
***** Initializing...

***** Beginning DC Operating Point Calculation...

***** Beginning Transient Calculation...

***** Percent complete: 1.5 %
***** Current system time: Wed Dec  6 20:18:10 2023
***** Estimated time to completion:  0 sec.

***** Percent complete: 3.5 %
***** Current system time: Wed Dec  6 20:18:10 2023
***** Estimated time to completion:  0 sec.

***** Percent complete: 7.5 %
***** Current system time: Wed Dec  6 20:18:10 2023
***** Estimated time to completion:  0 sec.

***** Percent complete: 15.5 %
***** Current system time: Wed Dec  6 20:18:10 2023
***** Estimated time to completion:  0 sec.

***** Percent complete: 25.5 %
***** Current system time: Wed Dec  6 20:18:10 2023
***** Estimated time to completion:  0 sec.

***** Percent complete: 35.5 %
***** Current system time: Wed Dec  6 20:18:10 2023
***** Estimated time to completion:  0 sec.

***** Percent complete: 45.5 %
***** Current system time: Wed Dec  6 20:18:10 2023
***** Estimated time to completion:  0 sec.

***** Percent complete: 55.5 %
***** Current system time: Wed Dec  6 20:18:10 2023
***** Estimated time to completion:  0 sec.

***** Percent complete: 65.5 %
***** Current system time: Wed Dec  6 20:18:10 2023
***** Estimated time to completion:  0 sec.

***** Percent complete: 75.5 %
***** Current system time: Wed Dec  6 20:18:10 2023
***** Estimated time to completion:  0 sec.

***** Percent complete: 85.5 %
***** Current system time: Wed Dec  6 20:18:10 2023
***** Estimated time to completion:  0 sec.

***** Percent complete: 95.5 %
***** Current system time: Wed Dec  6 20:18:10 2023
***** Estimated time to completion:  0 sec.

***** Problem read in and set up time: 0.00190806 seconds
 ***** DCOP time: 0.000463963 seconds.  Breakdown follows:
	Number Successful Steps Taken:		1
	Number Failed Steps Attempted:		0
	Number Jacobians Evaluated:		2
	Number Linear Solves:			2
	Number Failed Linear Solves:		0
	Number Residual Evaluations:		4
	Number Nonlinear Convergence Failures:	0
	Total Residual Load Time:		2.90871e-05 seconds
	Total Jacobian Load Time:		8.10623e-06 seconds
	Total Linear Solution Time:		4.98295e-05 seconds

 ***** Transient Stepping time: 0.000843048 seconds.  Breakdown follows:
	Number Successful Steps Taken:		14
	Number Failed Steps Attempted:		0
	Number Jacobians Evaluated:		14
	Number Linear Solves:			14
	Number Failed Linear Solves:		0
	Number Residual Evaluations:		28
	Number Nonlinear Convergence Failures:	0
	Total Residual Load Time:		0.000111818 seconds
	Total Jacobian Load Time:		2.38419e-05 seconds
	Total Linear Solution Time:		4.07696e-05 seconds


***** Solution Summary *****
	Number Successful Steps Taken:		15
	Number Failed Steps Attempted:		0
	Number Jacobians Evaluated:		16
	Number Linear Solves:			16
	Number Failed Linear Solves:		0
	Number Residual Evaluations:		32
	Number Nonlinear Convergence Failures:	0
	Total Residual Load Time:		0.000140905 seconds
	Total Jacobian Load Time:		3.19481e-05 seconds
	Total Linear Solution Time:		9.05991e-05 seconds


***** Total Simulation Solvers Run Time: 0.00149894 seconds
***** Total Elapsed Run Time:            0.00340009 seconds
*****
***** End of Xyce(TM) Simulation
*****

Timing summary of 1 processor
                 Stats                   Count       CPU Time              Wall Time
---------------------------------------- ----- --------------------- ---------------------
Xyce                                         1        0.006 (100.0%)        0.006 (100.0%)
  Analysis                                   1        0.001 (19.63%)        0.001 (22.37%)
    Transient                                1        0.001 (19.49%)        0.001 (22.21%)
      Nonlinear Solve                       15        0.000 ( 7.77%)        0.001 ( 9.05%)
        Residual                            32        0.000 ( 2.02%)        0.000 ( 2.34%)
        Jacobian                            16        0.000 ( 0.52%)        0.000 ( 0.59%)
        Linear Solve                        16        0.000 ( 1.22%)        0.000 ( 1.46%)
      Successful DCOP Steps                  1        0.000 ( 1.72%)        0.000 ( 2.08%)
      Successful Step                       14        0.000 ( 2.81%)        0.000 ( 3.26%)
  Netlist Import                             1        0.001 ( 9.96%)        0.001 (11.86%)
    Parse Context                            1        0.000 ( 2.09%)        0.000 ( 2.48%)
    Distribute Devices                       1        0.000 ( 1.38%)        0.000 ( 1.66%)
    Verify Devices                           1        0.000 ( 0.05%)        0.000 ( 0.06%)
    Instantiate                              1        0.000 ( 1.26%)        0.000 ( 1.49%)
  Late Initialization                        1        0.000 ( 7.20%)        0.001 ( 8.59%)
    Global Indices                           1        0.000 ( 0.71%)        0.000 ( 0.83%)
  Setup Matrix Structure                     1        0.000 ( 1.65%)        0.000 ( 1.97%)

