
*****
***** Welcome to the Xyce(TM) Parallel Electronic Simulator
*****
***** This is version Xyce DEVELOPMENT-202401290536-opensource
***** Date: Mon Jan 29 17:25:54 UTC 2024


***** Executing netlist ./MFlibrary_testing/stdcellTesting/serpentine/serp100_test_1.cir

***** Reading and parsing netlist...
***** Setting up topology...

Netlist warning: Voltage Node (4) connected to only 1 device Terminal
Netlist warning: Voltage Node (3) does not have a DC path to ground
Netlist warning: Voltage Node (4) does not have a DC path to ground
***** Device Count Summary ...
       PRESSUREPUMP level 1 (ADMS pressurePump)             1
       SERPENTINE_100PX_0 level 1 (ADMS serpentine_100px_0) 2
       ------------------------------------------------------
       Total Devices                                        3
***** Setting up matrix structure...
***** Number of Unknowns = 9
***** Initializing...

***** Beginning DC Operating Point Calculation...

***** Beginning Transient Calculation...

***** Percent complete: 1.5 %
***** Current system time: Mon Jan 29 17:25:54 2024
***** Estimated time to completion:  0 sec.

***** Percent complete: 3.5 %
***** Current system time: Mon Jan 29 17:25:54 2024
***** Estimated time to completion:  0 sec.

***** Percent complete: 7.5 %
***** Current system time: Mon Jan 29 17:25:54 2024
***** Estimated time to completion:  0 sec.

***** Percent complete: 15.5 %
***** Current system time: Mon Jan 29 17:25:54 2024
***** Estimated time to completion:  0 sec.

***** Percent complete: 25.5 %
***** Current system time: Mon Jan 29 17:25:54 2024
***** Estimated time to completion:  0 sec.

***** Percent complete: 35.5 %
***** Current system time: Mon Jan 29 17:25:54 2024
***** Estimated time to completion:  0 sec.

***** Percent complete: 45.5 %
***** Current system time: Mon Jan 29 17:25:54 2024
***** Estimated time to completion:  0 sec.

***** Percent complete: 55.5 %
***** Current system time: Mon Jan 29 17:25:54 2024
***** Estimated time to completion:  0 sec.

***** Percent complete: 65.5 %
***** Current system time: Mon Jan 29 17:25:54 2024
***** Estimated time to completion:  0 sec.

***** Percent complete: 75.5 %
***** Current system time: Mon Jan 29 17:25:54 2024
***** Estimated time to completion:  0 sec.

***** Percent complete: 85.5 %
***** Current system time: Mon Jan 29 17:25:54 2024
***** Estimated time to completion:  0 sec.

***** Percent complete: 95.5 %
***** Current system time: Mon Jan 29 17:25:54 2024
***** Estimated time to completion:  0 sec.

***** Problem read in and set up time: 0.00188398 seconds
 ***** DCOP time: 0.000495911 seconds.  Breakdown follows:
	Number Successful Steps Taken:		1
	Number Failed Steps Attempted:		0
	Number Jacobians Evaluated:		2
	Number Linear Solves:			2
	Number Failed Linear Solves:		0
	Number Residual Evaluations:		4
	Number Nonlinear Convergence Failures:	0
	Total Residual Load Time:		3.02792e-05 seconds
	Total Jacobian Load Time:		7.15256e-06 seconds
	Total Linear Solution Time:		5.29289e-05 seconds

 ***** Transient Stepping time: 0.000884056 seconds.  Breakdown follows:
	Number Successful Steps Taken:		14
	Number Failed Steps Attempted:		0
	Number Jacobians Evaluated:		14
	Number Linear Solves:			14
	Number Failed Linear Solves:		0
	Number Residual Evaluations:		28
	Number Nonlinear Convergence Failures:	0
	Total Residual Load Time:		0.000106096 seconds
	Total Jacobian Load Time:		2.93255e-05 seconds
	Total Linear Solution Time:		4.00543e-05 seconds


***** Solution Summary *****
	Number Successful Steps Taken:		15
	Number Failed Steps Attempted:		0
	Number Jacobians Evaluated:		16
	Number Linear Solves:			16
	Number Failed Linear Solves:		0
	Number Residual Evaluations:		32
	Number Nonlinear Convergence Failures:	0
	Total Residual Load Time:		0.000136375 seconds
	Total Jacobian Load Time:		3.6478e-05 seconds
	Total Linear Solution Time:		9.29832e-05 seconds


***** Total Simulation Solvers Run Time: 0.00155711 seconds
***** Total Elapsed Run Time:            0.00343609 seconds
*****
***** End of Xyce(TM) Simulation
*****

Timing summary of 1 processor
                 Stats                   Count       CPU Time              Wall Time
---------------------------------------- ----- --------------------- ---------------------
Xyce                                         1        0.006 (100.0%)        0.006 (100.0%)
  Analysis                                   1        0.002 (23.99%)        0.002 (24.00%)
    Transient                                1        0.002 (23.85%)        0.002 (23.86%)
      Nonlinear Solve                       15        0.001 ( 9.30%)        0.001 ( 9.30%)
        Residual                            32        0.000 ( 2.32%)        0.000 ( 2.36%)
        Jacobian                            16        0.000 ( 0.62%)        0.000 ( 0.66%)
        Linear Solve                        16        0.000 ( 1.57%)        0.000 ( 1.58%)
      Successful DCOP Steps                  1        0.000 ( 2.46%)        0.000 ( 2.48%)
      Successful Step                       14        0.000 ( 3.53%)        0.000 ( 3.51%)
  Netlist Import                             1        0.001 (11.70%)        0.001 (11.71%)
    Parse Context                            1        0.000 ( 2.05%)        0.000 ( 2.07%)
    Distribute Devices                       1        0.000 ( 1.73%)        0.000 ( 1.75%)
    Verify Devices                           1        0.000 ( 0.08%)        0.000 ( 0.08%)
    Instantiate                              1        0.000 ( 1.29%)        0.000 ( 1.29%)
  Late Initialization                        1        0.001 ( 8.28%)        0.001 ( 8.29%)
    Global Indices                           1        0.000 ( 0.86%)        0.000 ( 0.84%)
  Setup Matrix Structure                     1        0.000 ( 1.97%)        0.000 ( 1.96%)

