
*****
***** Welcome to the Xyce(TM) Parallel Electronic Simulator
*****
***** This is version Xyce Release 7.8-opensource
***** Date: Thu Apr 25 23:10:53 MDT 2024


***** Executing netlist channel_0_1.cir

***** Reading and parsing netlist...
***** Setting up topology...

Netlist warning: Voltage Node (4) connected to only 1 device Terminal
Netlist warning: Voltage Node (3) does not have a DC path to ground
Netlist warning: Voltage Node (4) does not have a DC path to ground
***** Device Count Summary ...
       CHANNEL level 1 (ADMS channel)           2
       PRESSUREPUMP level 1 (ADMS pressurePump) 1
       ------------------------------------------
       Total Devices                            3
***** Setting up matrix structure...
***** Number of Unknowns = 9
***** Initializing...

***** Beginning DC Operating Point Calculation...

Netlist warning: Numerically singular matrix found by Amesos, returning zero
 solution to nonlinear solver!
Netlist warning: Numerically singular matrix found by Amesos, returning zero
 solution to nonlinear solver!
Netlist warning: Numerically singular matrix found by Amesos, returning zero
 solution to nonlinear solver!
DC Operating Point Failed.  Exiting transient loop

***** Solution Summary *****
	Number Successful Steps Taken:		0
	Number Failed Steps Attempted:		1
	Number Jacobians Evaluated:		3
	Number Linear Solves:			3
	Number Failed Linear Solves:		3
	Number Residual Evaluations:		11
	Number Nonlinear Convergence Failures:	1
	Total Residual Load Time:		5.10216e-05 seconds
	Total Jacobian Load Time:		1.40667e-05 seconds
	Total Linear Solution Time:		0.000173092 seconds


***** Total Simulation Solvers Run Time: 0.00178719 seconds
***** Total Elapsed Run Time:            0.0245149 seconds
*****
***** End of Xyce(TM) Simulation
*****

Timing summary of 1 processor
                 Stats                   Count       CPU Time              Wall Time
---------------------------------------- ----- --------------------- ---------------------
Xyce                                         1        0.005 (100.0%)        0.033 (100.0%)
  Analysis                                   1        0.001 (13.74%)        0.002 ( 5.30%)
    Transient                                1        0.001 (13.55%)        0.002 ( 5.26%)
      Nonlinear Solve                        1        0.001 (12.07%)        0.002 ( 4.96%)
        Residual                            11        0.000 ( 0.51%)        0.000 ( 0.19%)
        Jacobian                             3        0.000 ( 0.10%)        0.000 ( 0.05%)
        Linear Solve                         3        0.000 ( 0.61%)        0.000 ( 0.53%)
      Failed DCOP Steps                      1        0.000 ( 0.11%)        0.000 ( 0.02%)
  Netlist Import                             1        0.000 ( 4.49%)        0.008 (24.19%)
    Parse Context                            1        0.000 ( 2.62%)        0.001 ( 2.34%)
    Distribute Devices                       1        0.000 ( 0.00%)        0.000 ( 0.53%)
    Verify Devices                           1        0.000 ( 0.00%)        0.000 ( 0.02%)
    Instantiate                              1        0.000 ( 0.00%)        0.000 ( 0.20%)
  Late Initialization                        1        0.000 ( 3.88%)        0.014 (42.05%)
    Global Indices                           1        0.000 ( 0.00%)        0.013 (39.38%)
  Setup Matrix Structure                     1        0.000 ( 0.00%)        0.000 ( 0.89%)

