
*****
***** Welcome to the Xyce(TM) Parallel Electronic Simulator
*****
***** This is version Xyce DEVELOPMENT-202306010240-(Public_Release-7.6.0-225-g0f7f3e36)-opensource
***** Date: Wed Dec 06 20:27:04 UTC 2023


***** Executing netlist ./MFlibrary_testing/stdcellTesting/serpentine/serp100_test_1.cir

***** Reading and parsing netlist...
***** Setting up topology...

Netlist warning: Voltage Node (4) connected to only 1 device Terminal
Netlist warning: Voltage Node (3) does not have a DC path to ground
Netlist warning: Voltage Node (4) does not have a DC path to ground
***** Device Count Summary ...
       PRESSUREPUMP level 1 (ADMS pressurePump)             1
       SERPENTINE_100PX_0 level 1 (ADMS serpentine_100px_0) 2
       ------------------------------------------------------
       Total Devices                                        3
***** Setting up matrix structure...
***** Number of Unknowns = 9
***** Initializing...

***** Beginning DC Operating Point Calculation...

***** Beginning Transient Calculation...

***** Percent complete: 1.5 %
***** Current system time: Wed Dec  6 20:27:04 2023
***** Estimated time to completion:  0 sec.

***** Percent complete: 3.5 %
***** Current system time: Wed Dec  6 20:27:04 2023
***** Estimated time to completion:  0 sec.

***** Percent complete: 7.5 %
***** Current system time: Wed Dec  6 20:27:04 2023
***** Estimated time to completion:  0 sec.

***** Percent complete: 15.5 %
***** Current system time: Wed Dec  6 20:27:04 2023
***** Estimated time to completion:  0 sec.

***** Percent complete: 25.5 %
***** Current system time: Wed Dec  6 20:27:04 2023
***** Estimated time to completion:  0 sec.

***** Percent complete: 35.5 %
***** Current system time: Wed Dec  6 20:27:04 2023
***** Estimated time to completion:  0 sec.

***** Percent complete: 45.5 %
***** Current system time: Wed Dec  6 20:27:04 2023
***** Estimated time to completion:  0 sec.

***** Percent complete: 55.5 %
***** Current system time: Wed Dec  6 20:27:04 2023
***** Estimated time to completion:  0 sec.

***** Percent complete: 65.5 %
***** Current system time: Wed Dec  6 20:27:04 2023
***** Estimated time to completion:  0 sec.

***** Percent complete: 75.5 %
***** Current system time: Wed Dec  6 20:27:04 2023
***** Estimated time to completion:  0 sec.

***** Percent complete: 85.5 %
***** Current system time: Wed Dec  6 20:27:04 2023
***** Estimated time to completion:  0 sec.

***** Percent complete: 95.5 %
***** Current system time: Wed Dec  6 20:27:04 2023
***** Estimated time to completion:  0 sec.

***** Problem read in and set up time: 0.00190306 seconds
 ***** DCOP time: 0.000469923 seconds.  Breakdown follows:
	Number Successful Steps Taken:		1
	Number Failed Steps Attempted:		0
	Number Jacobians Evaluated:		2
	Number Linear Solves:			2
	Number Failed Linear Solves:		0
	Number Residual Evaluations:		4
	Number Nonlinear Convergence Failures:	0
	Total Residual Load Time:		2.98023e-05 seconds
	Total Jacobian Load Time:		7.15256e-06 seconds
	Total Linear Solution Time:		5.22137e-05 seconds

 ***** Transient Stepping time: 0.000833035 seconds.  Breakdown follows:
	Number Successful Steps Taken:		14
	Number Failed Steps Attempted:		0
	Number Jacobians Evaluated:		14
	Number Linear Solves:			14
	Number Failed Linear Solves:		0
	Number Residual Evaluations:		28
	Number Nonlinear Convergence Failures:	0
	Total Residual Load Time:		0.000114202 seconds
	Total Jacobian Load Time:		3.26633e-05 seconds
	Total Linear Solution Time:		4.00543e-05 seconds


***** Solution Summary *****
	Number Successful Steps Taken:		15
	Number Failed Steps Attempted:		0
	Number Jacobians Evaluated:		16
	Number Linear Solves:			16
	Number Failed Linear Solves:		0
	Number Residual Evaluations:		32
	Number Nonlinear Convergence Failures:	0
	Total Residual Load Time:		0.000144005 seconds
	Total Jacobian Load Time:		3.98159e-05 seconds
	Total Linear Solution Time:		9.2268e-05 seconds


***** Total Simulation Solvers Run Time: 0.00149298 seconds
***** Total Elapsed Run Time:            0.00339007 seconds
*****
***** End of Xyce(TM) Simulation
*****

Timing summary of 1 processor
                 Stats                   Count       CPU Time              Wall Time
---------------------------------------- ----- --------------------- ---------------------
Xyce                                         1        0.003 (100.0%)        0.007 (100.0%)
  Analysis                                   1        0.001 (52.26%)        0.001 (22.21%)
    Transient                                1        0.001 (51.97%)        0.001 (22.07%)
      Nonlinear Solve                       15        0.001 (21.58%)        0.001 ( 9.18%)
        Residual                            32        0.000 ( 5.49%)        0.000 ( 2.35%)
        Jacobian                            16        0.000 ( 1.45%)        0.000 ( 0.64%)
        Linear Solve                        16        0.000 ( 3.58%)        0.000 ( 1.54%)
      Successful DCOP Steps                  1        0.000 ( 4.88%)        0.000 ( 2.07%)
      Successful Step                       14        0.000 ( 7.37%)        0.000 ( 3.21%)
  Netlist Import                             1        0.001 (22.88%)        0.001 (11.62%)
    Parse Context                            1        0.000 ( 3.22%)        0.000 ( 1.84%)
    Distribute Devices                       1        0.000 ( 4.26%)        0.000 ( 1.81%)
    Verify Devices                           1        0.000 ( 0.14%)        0.000 ( 0.06%)
    Instantiate                              1        0.000 ( 3.36%)        0.000 ( 1.43%)
  Late Initialization                        1        0.001 (20.13%)        0.001 ( 8.57%)
    Global Indices                           1        0.000 ( 2.06%)        0.000 ( 0.86%)
  Setup Matrix Structure                     1        0.000 ( 4.48%)        0.000 ( 1.90%)

