
*****
***** Welcome to the Xyce(TM) Parallel Electronic Simulator
*****
***** This is version Xyce DEVELOPMENT-202306010240-(Public_Release-7.6.0-225-g0f7f3e36)-opensource
***** Date: Thu Dec 07 21:14:58 UTC 2023


***** Executing netlist ./MFlibrary_testing/stdcellTesting/serpentine/serp100_test_1.cir

***** Reading and parsing netlist...
***** Setting up topology...

Netlist warning: Voltage Node (4) connected to only 1 device Terminal
Netlist warning: Voltage Node (3) does not have a DC path to ground
Netlist warning: Voltage Node (4) does not have a DC path to ground
***** Device Count Summary ...
       PRESSUREPUMP level 1 (ADMS pressurePump)             1
       SERPENTINE_100PX_0 level 1 (ADMS serpentine_100px_0) 2
       ------------------------------------------------------
       Total Devices                                        3
***** Setting up matrix structure...
***** Number of Unknowns = 9
***** Initializing...

***** Beginning DC Operating Point Calculation...

***** Beginning Transient Calculation...

***** Percent complete: 1.5 %
***** Current system time: Thu Dec  7 21:14:58 2023
***** Estimated time to completion:  0 sec.

***** Percent complete: 3.5 %
***** Current system time: Thu Dec  7 21:14:58 2023
***** Estimated time to completion:  0 sec.

***** Percent complete: 7.5 %
***** Current system time: Thu Dec  7 21:14:58 2023
***** Estimated time to completion:  0 sec.

***** Percent complete: 15.5 %
***** Current system time: Thu Dec  7 21:14:58 2023
***** Estimated time to completion:  0 sec.

***** Percent complete: 25.5 %
***** Current system time: Thu Dec  7 21:14:58 2023
***** Estimated time to completion:  0 sec.

***** Percent complete: 35.5 %
***** Current system time: Thu Dec  7 21:14:58 2023
***** Estimated time to completion:  0 sec.

***** Percent complete: 45.5 %
***** Current system time: Thu Dec  7 21:14:58 2023
***** Estimated time to completion:  0 sec.

***** Percent complete: 55.5 %
***** Current system time: Thu Dec  7 21:14:58 2023
***** Estimated time to completion:  0 sec.

***** Percent complete: 65.5 %
***** Current system time: Thu Dec  7 21:14:58 2023
***** Estimated time to completion:  0 sec.

***** Percent complete: 75.5 %
***** Current system time: Thu Dec  7 21:14:58 2023
***** Estimated time to completion:  0 sec.

***** Percent complete: 85.5 %
***** Current system time: Thu Dec  7 21:14:58 2023
***** Estimated time to completion:  0 sec.

***** Percent complete: 95.5 %
***** Current system time: Thu Dec  7 21:14:58 2023
***** Estimated time to completion:  0 sec.

***** Problem read in and set up time: 0.00192213 seconds
 ***** DCOP time: 0.000459194 seconds.  Breakdown follows:
	Number Successful Steps Taken:		1
	Number Failed Steps Attempted:		0
	Number Jacobians Evaluated:		2
	Number Linear Solves:			2
	Number Failed Linear Solves:		0
	Number Residual Evaluations:		4
	Number Nonlinear Convergence Failures:	0
	Total Residual Load Time:		3.09944e-05 seconds
	Total Jacobian Load Time:		7.15256e-06 seconds
	Total Linear Solution Time:		5.26905e-05 seconds

 ***** Transient Stepping time: 0.000859976 seconds.  Breakdown follows:
	Number Successful Steps Taken:		14
	Number Failed Steps Attempted:		0
	Number Jacobians Evaluated:		14
	Number Linear Solves:			14
	Number Failed Linear Solves:		0
	Number Residual Evaluations:		28
	Number Nonlinear Convergence Failures:	0
	Total Residual Load Time:		0.000128508 seconds
	Total Jacobian Load Time:		2.81334e-05 seconds
	Total Linear Solution Time:		4.19617e-05 seconds


***** Solution Summary *****
	Number Successful Steps Taken:		15
	Number Failed Steps Attempted:		0
	Number Jacobians Evaluated:		16
	Number Linear Solves:			16
	Number Failed Linear Solves:		0
	Number Residual Evaluations:		32
	Number Nonlinear Convergence Failures:	0
	Total Residual Load Time:		0.000159502 seconds
	Total Jacobian Load Time:		3.52859e-05 seconds
	Total Linear Solution Time:		9.46522e-05 seconds


***** Total Simulation Solvers Run Time: 0.00150704 seconds
***** Total Elapsed Run Time:            0.00342417 seconds
*****
***** End of Xyce(TM) Simulation
*****

Timing summary of 1 processor
                 Stats                   Count       CPU Time              Wall Time
---------------------------------------- ----- --------------------- ---------------------
Xyce                                         1        0.007 (100.0%)        0.007 (100.0%)
  Analysis                                   1        0.001 (22.04%)        0.001 (22.00%)
    Transient                                1        0.001 (21.93%)        0.001 (21.89%)
      Nonlinear Solve                       15        0.001 ( 9.18%)        0.001 ( 9.14%)
        Residual                            32        0.000 ( 2.58%)        0.000 ( 2.53%)
        Jacobian                            16        0.000 ( 0.60%)        0.000 ( 0.63%)
        Linear Solve                        16        0.000 ( 1.51%)        0.000 ( 1.51%)
      Successful DCOP Steps                  1        0.000 ( 2.02%)        0.000 ( 2.02%)
      Successful Step                       14        0.000 ( 3.35%)        0.000 ( 3.42%)
  Netlist Import                             1        0.001 (11.11%)        0.001 (11.08%)
    Parse Context                            1        0.000 ( 1.87%)        0.000 ( 1.87%)
    Distribute Devices                       1        0.000 ( 1.71%)        0.000 ( 1.69%)
    Verify Devices                           1        0.000 ( 0.08%)        0.000 ( 0.06%)
    Instantiate                              1        0.000 ( 1.25%)        0.000 ( 1.25%)
  Late Initialization                        1        0.001 ( 8.78%)        0.001 ( 8.77%)
    Global Indices                           1        0.000 ( 0.85%)        0.000 ( 0.86%)
  Setup Matrix Structure                     1        0.000 ( 1.81%)        0.000 ( 1.81%)

