 ****** HSPICE -- Q-2020.03-2 linux64 (Apr 27 2020) ******                      
  Copyright (c) 1986 - 2022 by Synopsys, Inc. All Rights Reserved.              
  This software and the associated documentation are proprietary
  to Synopsys, Inc. This software may only be used in accordance
  with the terms and conditions of a written license agreement with
  Synopsys, Inc. All other use, reproduction, or distribution of
  this software is strictly prohibited.
  Input File: chemicalTest_1.sp                                                 
  Command line options: /uusoc/facility/cad_tools/Synopsys/hspice_Q-2020.03-2/hspice/linux64/hspice chemicalTest_1.sp -o chemicalTest_1_o
  Start time: Mon Aug 29 12:29:54 2022
 lic:  
 lic: FLEXlm: SDK_12.6 
 lic: USER:   u1146591             HOSTNAME: lab2-22.eng.utah.edu 
 lic: HOSTID: 18c04d88fc69         PID:      692707 
 lic: Using FLEXlm license file: 
 lic: 27000@chickasaw.eng.utah.edu 
 lic: Checkout 1 hspice 
 lic: License/Maintenance for hspice will expire on 14-mar-2024/2021.09 
 lic: 1(in_use)/50(total) FLOATING license(s) on SERVER 27000@chickasaw.eng.utah.edu 
 lic:   
 **info** *pvaI* current limit stacksize=8388608, set new limit stacksize=62914560

 **info** *pvaI* Module (RectangularChannel): 4 unexpanded port, 7 init, 2 behav, 2 contrib, 25/0 expr(s)

 **warning** *pvaW*        node 'c_in' grounded by current reference 'C(c_in)' (../../../MFlibrary/RectangularChannel.va:67)

 **info** *pvaI*        Has DIS(AE ST IB), 0/0 afCount, 0 MT, dlg, IO(0/0/1/0)

 **info** *pvaI*        0 gmdIsThreadSafe (AE ST IB)

 **info** *pvaI*        0 const-G and 0 const-C, No switchBranch, 22 bypassOpt, 0 bus2scalar, 0 vwb

 **info** *pvaI*        set_va_exp = 80 [80.0, 704.0] set by default

 **info** *pvaI*        Port direction input of 'fl_in' is coerced to inout (../../../MFlibrary/RectangularChannel.va:24)

 **info** *pvaI*        Port direction output of 'fl_out' is coerced to inout (../../../MFlibrary/RectangularChannel.va:24)

 **info** *pvaI*        Port direction input of 'c_in' is coerced to inout (../../../MFlibrary/RectangularChannel.va:25)

 **info** *pvaI*        generated 1 flow node(s) during compilation.

 **info** *pvaI* Module (PressurePump): 2 unexpanded port, 0 init, 2 behav, 2 contrib, 6/0 expr(s)

 **info** *pvaI*        No DIS, 0/0 afCount, 0 MT, dlg, IO(0/0/0/0)

 **info** *pvaI*        0 gmdIsThreadSafe 

 **info** *pvaI*        0 const-G and 0 const-C, No switchBranch, 22 bypassOpt, 0 bus2scalar, 0 vwb

 **info** *pvaI*        set_va_exp = 80 [80.0, 704.0] set by default

 **info** *pvaI*        Port direction output of 'fl_out' is coerced to inout (../../../MFlibrary/PressurePump.va:12)

 **info** *pvaI*        generated 1 flow node(s) during compilation.

 **info** *pvaI* Module (OutletPort): 2 unexpanded port, 0 init, 2 behav, 2 contrib, 6/0 expr(s)

 **warning** *pvaW*        Variable 'gnd' is used without declaration, set to real. To error out, setenv PVA_AUTO_DECLARE 0 (../../../MFlibrary/OutletPort.va:12)

 **info** *pvaI*        Has DIS(ST), 0/0 afCount, 0 MT, dlg, IO(0/0/1/0)

 **info** *pvaI*        0 gmdIsThreadSafe (ST)

 **info** *pvaI*        0 const-G and 0 const-C, No switchBranch, 22 bypassOpt, 0 bus2scalar, 0 vwb

 **info** *pvaI*        set_va_exp = 80 [80.0, 704.0] set by default

 **info** *pvaI*        Port direction input of 'fl_in' is coerced to inout (../../../MFlibrary/OutletPort.va:8)

 **info** *pvaI*        Port direction input of 'c_in' is coerced to inout (../../../MFlibrary/OutletPort.va:9)

 **info** *pvaI*        generated 2 flow node(s) during compilation.

 **info** *pvaI* #### Total 336 line-size(s), 37/0 expr(s), 6 contr(s), 7 init(s), 6 behav(s), 8 port(s)

 Loading pVA library chemicalTest_1_o.pvadir/pvaRTL_linux64.so...
1****** HSPICE -- Q-2020.03-2 linux64 (Apr 27 2020) ******                      
 ******  
 

 ****** circuit name directory
 circuit number to circuit name directory
   number circuitname                     definition         multiplier
        0 main circuit
        1 x1.                             PressurePump(va)   1.00 
        2 x2.                             PressurePump(va)   1.00 
        3 x3.                             RectangularChannel(va)
                                                                 1.00 
        4 x4.                             RectangularChannel(va)
                                                                 1.00 
        5 x5.                             RectangularChannel(va)
                                                                 1.00 
        6 x6.                             OutletPort(va)     1.00 
 **info** *pvaI* Creating VA module (OutletPort) for instance X6 with gmd reduction

 **info** *pvaI*        termCount=4 diwSize=14 probeSize=6 Qsize=0 Isize=4

 End of GMD creation on Mon Aug 29 12:29:55 2022	GTM/In-use: 4.1250/0.6940 MB


 **info** *pvaI* Creating VA module (RectangularChannel) for instance X5 with gmd reduction

 **info** *pvaI*        termCount=5 diwSize=15 probeSize=17 Qsize=0 Isize=4

 End of GMD creation on Mon Aug 29 12:29:55 2022	GTM/In-use: 4.1250/0.7357 MB


 **info** *pvaI* Creating VA module (PressurePump) for instance X2 with gmd reduction

 **info** *pvaI*        termCount=3 diwSize=9 probeSize=6 Qsize=0 Isize=3

 End of GMD creation on Mon Aug 29 12:29:55 2022	GTM/In-use: 4.1250/0.7423 MB


 **info** *pvaI* Creating VA module (PressurePump) for instance X1 with gmd reduction

 **info** *pvaI*        termCount=3 diwSize=9 probeSize=6 Qsize=0 Isize=3

 End of GMD creation on Mon Aug 29 12:29:55 2022	GTM/In-use: 4.1250/0.7424 MB


  **warning** (chemicalTest_1.sp:38) Could not find current for verilog-A port or branch x6.c_out ;output ignored
  
      
 *****************************************************************
 ******  option summary
 ******
 runlvl  = 3         bypass  = 2.0000    
  Opening plot unit= 15
 file=chemicalTest_1_o.pa0

 End of pVA setup    on Mon Aug 29 12:29:55 2022	GTM/In-use: 4.1250/1.0303 MB


 Begin of pVA simulation on Mon Aug 29 12:29:55 2022	GTM/In-use: 4.1250/1.0303 MB


 **info** dc convergence successful at Newton-Raphson method 
 ******  
 

 ****** operating point information tnom=  25.000 temp=  25.000 ******
 ****** operating point status is voltage   simulation time is     0.     
    node    =voltage      node    =voltage      node    =voltage

 +0:c11     =   0.      0:c21     =   0.      0:c3      =   0.     
 +0:c4      =   0.      0:s11     = 100.0000k 0:s21     = 100.0000k
 +0:s3      =  66.6667k 0:s4      =   0.     

 **info** *pvaI* minimum timestep = 1e-15


          ***** job concluded
 ******  
 

 ****** job statistics summary tnom=  25.000 temp=  25.000 ******
  
 ******  Machine Information  ******
 CPU:
 model name	: Intel(R) Core(TM) i7-10700 CPU @ 2.90GHz
 cpu MHz	: 2900.000
  
 OS:
 Linux version 4.18.0-372.19.1.el8_6.x86_64 (mockbuild@x86-vm-07.build.eng.bos.redhat.com) (gcc version 8.5.0 20210514 (Red Hat 8.5.0-10) (GCC)) #1 SMP Mon Jul 18 11:14:02 EDT 2022


  ******  HSPICE Threads Information  ******

  Command Line Threads Count :     1
  Available CPU Count        :    16
  Actual Threads Count       :     1


  ******  Circuit Statistics  ******
  # nodes       =      22 # elements   =      19
  # resistors   =       0 # capacitors =       0 # inductors   =       0
  # mutual_inds =       0 # vccs       =       0 # vcvs        =       0
  # cccs        =       0 # ccvs       =       0 # volt_srcs   =      13
  # curr_srcs   =       0 # diodes     =       0 # bjts        =       0
  # jfets       =       0 # mosfets    =       0 # U elements  =       0
  # T elements  =       0 # W elements =       0 # B elements  =       0
  # S elements  =       0 # P elements =       0 # va device   =       6
  # vector_srcs =       0 # N elements =       0


  ******  Runtime Statistics (seconds)  ******

  analysis           time    # points   tot. iter  conv.iter
  op point           0.01           1         103
  transient          0.00     1000001          64          32 rev=         0
  readin             0.81
  errchk             0.01
  setup              0.01
  output             0.00


           peak memory used        428.43 megabytes
           total cpu time            0.85 seconds
           total elapsed time        1.03 seconds
           job started at     12:29:54 08/29/2022
           job ended   at     12:29:55 08/29/2022
           job total runtime         1.03 seconds


 lic: Release hspice token(s) 
 lic: total license checkout elapse time:        0.11(s)
