
*****
***** Welcome to the Xyce(TM) Parallel Electronic Simulator
*****
***** This is version Xyce DEVELOPMENT-202306010240-(Public_Release-7.6.0-225-g0f7f3e36)-opensource
***** Date: Thu Dec 07 20:36:20 UTC 2023


***** Executing netlist ./MFlibrary_testing/stdcellTesting/mixer/diffMix_test_1.cir

***** Reading and parsing netlist...
***** Setting up topology...

Netlist info in file
 ./MFlibrary_testing/stdcellTesting/mixer/diffMix_test_1.cir at or near line 9
 Device instance YDIFFMIX_25PX_0!MIX1: resistance Mixer: 
 
Netlist info in file
 ./MFlibrary_testing/stdcellTesting/mixer/diffMix_test_1.cir at or near line 9
 Device instance YDIFFMIX_25PX_0!MIX1: 5.28498e+10 
 
Netlist info in file
 ./MFlibrary_testing/stdcellTesting/mixer/diffMix_test_1.cir at or near line 9
 Device instance YDIFFMIX_25PX_0!MIX1: 7.48241e+10 
 
Netlist info in file
 ./MFlibrary_testing/stdcellTesting/mixer/diffMix_test_1.cir at or near line 9
 Device instance YDIFFMIX_25PX_0!MIX1: 5.28498e+10 
 
Netlist info in file
 ./MFlibrary_testing/stdcellTesting/mixer/diffMix_test_1.cir at or near line 9
 Device instance YDIFFMIX_25PX_0!MIX1: test 4 
 
Netlist warning: Voltage Node (8) connected to only 1 device Terminal
Netlist warning: Voltage Node (7) does not have a DC path to ground
Netlist warning: Voltage Node (8) does not have a DC path to ground
Netlist warning: Voltage Node (3) does not have a DC path to ground
Netlist warning: Voltage Node (13) does not have a DC path to ground
Netlist warning: Voltage Node (11) does not have a DC path to ground
Netlist warning: Voltage Node (4) does not have a DC path to ground
Netlist warning: Voltage Node (22) does not have a DC path to ground
Netlist warning: Voltage Node (44) does not have a DC path to ground
Netlist warning: Voltage Node (2) does not have a DC path to ground
Netlist warning: Voltage Node (1) does not have a DC path to ground
***** Device Count Summary ...
       DIFFMIX_25PX_0 level 1 (ADMS diffmix_25px_0)         1
       PRESSUREPUMP level 1 (ADMS pressurePump)             2
       SERPENTINE_100PX_0 level 1 (ADMS serpentine_100px_0) 3
       ------------------------------------------------------
       Total Devices                                        6
***** Setting up matrix structure...
***** Number of Unknowns = 20
***** Initializing...

***** Beginning DC Operating Point Calculation...

***** Beginning Transient Calculation...

***** Percent complete: 1.5 %
***** Current system time: Thu Dec  7 20:36:20 2023
***** Estimated time to completion:  0 sec.

***** Percent complete: 3.5 %
***** Current system time: Thu Dec  7 20:36:20 2023
***** Estimated time to completion:  0 sec.

***** Percent complete: 7.5 %
***** Current system time: Thu Dec  7 20:36:20 2023
***** Estimated time to completion:  0 sec.

***** Percent complete: 15.5 %
***** Current system time: Thu Dec  7 20:36:20 2023
***** Estimated time to completion:  0 sec.

***** Percent complete: 25.5 %
***** Current system time: Thu Dec  7 20:36:20 2023
***** Estimated time to completion:  0 sec.

***** Percent complete: 35.5 %
***** Current system time: Thu Dec  7 20:36:20 2023
***** Estimated time to completion:  0 sec.

***** Percent complete: 45.5 %
***** Current system time: Thu Dec  7 20:36:20 2023
***** Estimated time to completion:  0 sec.

***** Percent complete: 55.5 %
***** Current system time: Thu Dec  7 20:36:20 2023
***** Estimated time to completion:  0 sec.

***** Percent complete: 65.5 %
***** Current system time: Thu Dec  7 20:36:20 2023
***** Estimated time to completion:  0 sec.

***** Percent complete: 75.5 %
***** Current system time: Thu Dec  7 20:36:20 2023
***** Estimated time to completion:  0 sec.

***** Percent complete: 85.5 %
***** Current system time: Thu Dec  7 20:36:20 2023
***** Estimated time to completion:  0 sec.

***** Percent complete: 95.5 %
***** Current system time: Thu Dec  7 20:36:20 2023
***** Estimated time to completion:  0 sec.

***** Problem read in and set up time: 0.00223804 seconds
 ***** DCOP time: 0.000555038 seconds.  Breakdown follows:
	Number Successful Steps Taken:		1
	Number Failed Steps Attempted:		0
	Number Jacobians Evaluated:		2
	Number Linear Solves:			2
	Number Failed Linear Solves:		0
	Number Residual Evaluations:		4
	Number Nonlinear Convergence Failures:	0
	Total Residual Load Time:		4.62532e-05 seconds
	Total Jacobian Load Time:		9.05991e-06 seconds
	Total Linear Solution Time:		6.41346e-05 seconds

 ***** Transient Stepping time: 0.00124979 seconds.  Breakdown follows:
	Number Successful Steps Taken:		14
	Number Failed Steps Attempted:		0
	Number Jacobians Evaluated:		14
	Number Linear Solves:			14
	Number Failed Linear Solves:		0
	Number Residual Evaluations:		28
	Number Nonlinear Convergence Failures:	0
	Total Residual Load Time:		0.000208855 seconds
	Total Jacobian Load Time:		4.31538e-05 seconds
	Total Linear Solution Time:		6.34193e-05 seconds


***** Solution Summary *****
	Number Successful Steps Taken:		15
	Number Failed Steps Attempted:		0
	Number Jacobians Evaluated:		16
	Number Linear Solves:			16
	Number Failed Linear Solves:		0
	Number Residual Evaluations:		32
	Number Nonlinear Convergence Failures:	0
	Total Residual Load Time:		0.000255108 seconds
	Total Jacobian Load Time:		5.22137e-05 seconds
	Total Linear Solution Time:		0.000127554 seconds


***** Total Simulation Solvers Run Time: 0.00208688 seconds
***** Total Elapsed Run Time:            0.0043211 seconds
*****
***** End of Xyce(TM) Simulation
*****

Timing summary of 1 processor
                 Stats                   Count       CPU Time              Wall Time
---------------------------------------- ----- --------------------- ---------------------
Xyce                                         1        0.007 (100.0%)        0.008 (100.0%)
  Analysis                                   1        0.002 (27.41%)        0.002 (26.57%)
    Transient                                1        0.002 (27.31%)        0.002 (26.45%)
      Nonlinear Solve                       15        0.001 (10.42%)        0.001 (10.61%)
        Residual                            32        0.000 ( 3.71%)        0.000 ( 3.64%)
        Jacobian                            16        0.000 ( 0.78%)        0.000 ( 0.76%)
        Linear Solve                        16        0.000 ( 1.70%)        0.000 ( 1.80%)
      Successful DCOP Steps                  1        0.000 ( 2.61%)        0.000 ( 2.42%)
      Successful Step                       14        0.000 ( 4.04%)        0.000 ( 3.75%)
  Netlist Import                             1        0.001 (10.07%)        0.001 (12.41%)
    Parse Context                            1        0.000 ( 1.54%)        0.000 ( 1.90%)
    Distribute Devices                       1        0.000 ( 1.45%)        0.000 ( 1.79%)
    Verify Devices                           1        0.000 ( 0.22%)        0.000 ( 0.27%)
    Instantiate                              1        0.000 ( 2.30%)        0.000 ( 2.83%)
  Late Initialization                        1        0.001 ( 7.53%)        0.001 ( 9.28%)
    Global Indices                           1        0.000 ( 1.52%)        0.000 ( 1.86%)
  Setup Matrix Structure                     1        0.000 ( 1.44%)        0.000 ( 1.77%)

