
*****
***** Welcome to the Xyce(TM) Parallel Electronic Simulator
*****
***** This is version Xyce DEVELOPMENT-202306010240-(Public_Release-7.6.0-225-g0f7f3e36)-opensource
***** Date: Wed Dec 06 20:18:10 UTC 2023


***** Executing netlist ./MFlibrary_testing/stdcellTesting/mixer/diffMix_test_2.cir

***** Reading and parsing netlist...
***** Setting up topology...

Netlist info in file
 ./MFlibrary_testing/stdcellTesting/mixer/diffMix_test_2.cir at or near line 9
 Device instance YDIFFMIX_25PX_0!MIX1: resistance Mixer: 
 
Netlist info in file
 ./MFlibrary_testing/stdcellTesting/mixer/diffMix_test_2.cir at or near line 9
 Device instance YDIFFMIX_25PX_0!MIX1: 5.28498e+10 
 
Netlist info in file
 ./MFlibrary_testing/stdcellTesting/mixer/diffMix_test_2.cir at or near line 9
 Device instance YDIFFMIX_25PX_0!MIX1: 7.48241e+10 
 
Netlist info in file
 ./MFlibrary_testing/stdcellTesting/mixer/diffMix_test_2.cir at or near line 9
 Device instance YDIFFMIX_25PX_0!MIX1: 5.28498e+10 
 
Netlist info in file
 ./MFlibrary_testing/stdcellTesting/mixer/diffMix_test_2.cir at or near line 9
 Device instance YDIFFMIX_25PX_0!MIX1: test 4 
 
Netlist warning: Voltage Node (8) connected to only 1 device Terminal
Netlist warning: Voltage Node (7) does not have a DC path to ground
Netlist warning: Voltage Node (8) does not have a DC path to ground
Netlist warning: Voltage Node (3) does not have a DC path to ground
Netlist warning: Voltage Node (13) does not have a DC path to ground
Netlist warning: Voltage Node (11) does not have a DC path to ground
Netlist warning: Voltage Node (4) does not have a DC path to ground
Netlist warning: Voltage Node (22) does not have a DC path to ground
Netlist warning: Voltage Node (44) does not have a DC path to ground
Netlist warning: Voltage Node (2) does not have a DC path to ground
Netlist warning: Voltage Node (1) does not have a DC path to ground
***** Device Count Summary ...
       DIFFMIX_25PX_0 level 1 (ADMS diffmix_25px_0)         1
       PRESSUREPUMP level 1 (ADMS pressurePump)             2
       SERPENTINE_100PX_0 level 1 (ADMS serpentine_100px_0) 3
       ------------------------------------------------------
       Total Devices                                        6
***** Setting up matrix structure...
***** Number of Unknowns = 20
***** Initializing...

***** Beginning DC Operating Point Calculation...

***** Beginning Transient Calculation...

***** Percent complete: 1.5 %
***** Current system time: Wed Dec  6 20:18:10 2023
***** Estimated time to completion:  0 sec.

***** Percent complete: 3.5 %
***** Current system time: Wed Dec  6 20:18:10 2023
***** Estimated time to completion:  0 sec.

***** Percent complete: 7.5 %
***** Current system time: Wed Dec  6 20:18:10 2023
***** Estimated time to completion:  0 sec.

***** Percent complete: 15.5 %
***** Current system time: Wed Dec  6 20:18:10 2023
***** Estimated time to completion:  0 sec.

***** Percent complete: 25.5 %
***** Current system time: Wed Dec  6 20:18:10 2023
***** Estimated time to completion:  0 sec.

***** Percent complete: 35.5 %
***** Current system time: Wed Dec  6 20:18:10 2023
***** Estimated time to completion:  0 sec.

***** Percent complete: 45.5 %
***** Current system time: Wed Dec  6 20:18:10 2023
***** Estimated time to completion:  0 sec.

***** Percent complete: 55.5 %
***** Current system time: Wed Dec  6 20:18:10 2023
***** Estimated time to completion:  0 sec.

***** Percent complete: 65.5 %
***** Current system time: Wed Dec  6 20:18:10 2023
***** Estimated time to completion:  0 sec.

***** Percent complete: 75.5 %
***** Current system time: Wed Dec  6 20:18:10 2023
***** Estimated time to completion:  0 sec.

***** Percent complete: 85.5 %
***** Current system time: Wed Dec  6 20:18:10 2023
***** Estimated time to completion:  0 sec.

***** Percent complete: 95.5 %
***** Current system time: Wed Dec  6 20:18:10 2023
***** Estimated time to completion:  0 sec.

***** Problem read in and set up time: 0.00218701 seconds
 ***** DCOP time: 0.000528812 seconds.  Breakdown follows:
	Number Successful Steps Taken:		1
	Number Failed Steps Attempted:		0
	Number Jacobians Evaluated:		3
	Number Linear Solves:			3
	Number Failed Linear Solves:		0
	Number Residual Evaluations:		5
	Number Nonlinear Convergence Failures:	0
	Total Residual Load Time:		4.79221e-05 seconds
	Total Jacobian Load Time:		1.07288e-05 seconds
	Total Linear Solution Time:		6.58035e-05 seconds

 ***** Transient Stepping time: 0.00129104 seconds.  Breakdown follows:
	Number Successful Steps Taken:		14
	Number Failed Steps Attempted:		0
	Number Jacobians Evaluated:		14
	Number Linear Solves:			14
	Number Failed Linear Solves:		0
	Number Residual Evaluations:		28
	Number Nonlinear Convergence Failures:	0
	Total Residual Load Time:		0.000219345 seconds
	Total Jacobian Load Time:		3.95775e-05 seconds
	Total Linear Solution Time:		6.17504e-05 seconds


***** Solution Summary *****
	Number Successful Steps Taken:		15
	Number Failed Steps Attempted:		0
	Number Jacobians Evaluated:		17
	Number Linear Solves:			17
	Number Failed Linear Solves:		0
	Number Residual Evaluations:		33
	Number Nonlinear Convergence Failures:	0
	Total Residual Load Time:		0.000267267 seconds
	Total Jacobian Load Time:		5.03063e-05 seconds
	Total Linear Solution Time:		0.000127554 seconds


***** Total Simulation Solvers Run Time: 0.00213289 seconds
***** Total Elapsed Run Time:            0.00431609 seconds
*****
***** End of Xyce(TM) Simulation
*****

Timing summary of 1 processor
                 Stats                   Count       CPU Time              Wall Time
---------------------------------------- ----- --------------------- ---------------------
Xyce                                         1        0.007 (100.0%)        0.007 (100.0%)
  Analysis                                   1        0.002 (27.70%)        0.002 (27.71%)
    Transient                                1        0.002 (27.56%)        0.002 (27.58%)
      Nonlinear Solve                       15        0.001 (10.95%)        0.001 (10.88%)
        Residual                            33        0.000 ( 3.83%)        0.000 ( 3.88%)
        Jacobian                            17        0.000 ( 0.80%)        0.000 ( 0.76%)
        Linear Solve                        17        0.000 ( 1.85%)        0.000 ( 1.81%)
      Successful DCOP Steps                  1        0.000 ( 2.05%)        0.000 ( 2.06%)
      Successful Step                       14        0.000 ( 3.95%)        0.000 ( 3.95%)
  Netlist Import                             1        0.001 (12.37%)        0.001 (12.35%)
    Parse Context                            1        0.000 ( 1.79%)        0.000 ( 1.79%)
    Distribute Devices                       1        0.000 ( 1.86%)        0.000 ( 1.85%)
    Verify Devices                           1        0.000 ( 0.12%)        0.000 ( 0.11%)
    Instantiate                              1        0.000 ( 2.85%)        0.000 ( 2.83%)
  Late Initialization                        1        0.001 ( 9.17%)        0.001 ( 9.17%)
    Global Indices                           1        0.000 ( 1.77%)        0.000 ( 1.75%)
  Setup Matrix Structure                     1        0.000 ( 1.77%)        0.000 ( 1.77%)

