
*****
***** Welcome to the Xyce(TM) Parallel Electronic Simulator
*****
***** This is version Xyce DEVELOPMENT-202401290536-opensource
***** Date: Mon Jan 29 17:25:54 UTC 2024


***** Executing netlist ./MFlibrary_testing/stdcellTesting/mixer/diffMix_test_2.1.cir

***** Reading and parsing netlist...
***** Setting up topology...

Netlist info in file
 ./MFlibrary_testing/stdcellTesting/mixer/diffMix_test_2.1.cir at or near line 9
 Device instance YDIFFMIX_25PX_0!MIX1: resistance Mixer: 
 
Netlist info in file
 ./MFlibrary_testing/stdcellTesting/mixer/diffMix_test_2.1.cir at or near line 9
 Device instance YDIFFMIX_25PX_0!MIX1: 5.28498e+10 
 
Netlist info in file
 ./MFlibrary_testing/stdcellTesting/mixer/diffMix_test_2.1.cir at or near line 9
 Device instance YDIFFMIX_25PX_0!MIX1: 7.48241e+10 
 
Netlist info in file
 ./MFlibrary_testing/stdcellTesting/mixer/diffMix_test_2.1.cir at or near line 9
 Device instance YDIFFMIX_25PX_0!MIX1: 5.28498e+10 
 
Netlist info in file
 ./MFlibrary_testing/stdcellTesting/mixer/diffMix_test_2.1.cir at or near line 9
 Device instance YDIFFMIX_25PX_0!MIX1: test 4 
 
Netlist warning: Voltage Node (8) connected to only 1 device Terminal
Netlist warning: Voltage Node (7) does not have a DC path to ground
Netlist warning: Voltage Node (13) does not have a DC path to ground
Netlist warning: Voltage Node (4) does not have a DC path to ground
Netlist warning: Voltage Node (8) does not have a DC path to ground
Netlist warning: Voltage Node (44) does not have a DC path to ground
Netlist warning: Voltage Node (3) does not have a DC path to ground
Netlist warning: Voltage Node (1) does not have a DC path to ground
Netlist warning: Voltage Node (2) does not have a DC path to ground
Netlist warning: Voltage Node (11) does not have a DC path to ground
Netlist warning: Voltage Node (22) does not have a DC path to ground
***** Device Count Summary ...
       DIFFMIX_25PX_0 level 1 (ADMS diffmix_25px_0)         1
       PRESSUREPUMP level 1 (ADMS pressurePump)             2
       SERPENTINE_100PX_0 level 1 (ADMS serpentine_100px_0) 3
       ------------------------------------------------------
       Total Devices                                        6
***** Setting up matrix structure...
***** Number of Unknowns = 20
***** Initializing...

***** Beginning DC Operating Point Calculation...

***** Beginning Transient Calculation...

***** Percent complete: 1.5 %
***** Current system time: Mon Jan 29 17:25:54 2024
***** Estimated time to completion:  0 sec.

***** Percent complete: 3.5 %
***** Current system time: Mon Jan 29 17:25:54 2024
***** Estimated time to completion:  0 sec.

***** Percent complete: 7.5 %
***** Current system time: Mon Jan 29 17:25:54 2024
***** Estimated time to completion:  0 sec.

***** Percent complete: 15.5 %
***** Current system time: Mon Jan 29 17:25:54 2024
***** Estimated time to completion:  0 sec.

***** Percent complete: 25.5 %
***** Current system time: Mon Jan 29 17:25:54 2024
***** Estimated time to completion:  0 sec.

***** Percent complete: 35.5 %
***** Current system time: Mon Jan 29 17:25:54 2024
***** Estimated time to completion:  0 sec.

***** Percent complete: 45.5 %
***** Current system time: Mon Jan 29 17:25:54 2024
***** Estimated time to completion:  0 sec.

***** Percent complete: 55.5 %
***** Current system time: Mon Jan 29 17:25:54 2024
***** Estimated time to completion:  0 sec.

***** Percent complete: 65.5 %
***** Current system time: Mon Jan 29 17:25:54 2024
***** Estimated time to completion:  0 sec.

***** Percent complete: 75.5 %
***** Current system time: Mon Jan 29 17:25:54 2024
***** Estimated time to completion:  0 sec.

***** Percent complete: 85.5 %
***** Current system time: Mon Jan 29 17:25:54 2024
***** Estimated time to completion:  0 sec.

***** Percent complete: 95.5 %
***** Current system time: Mon Jan 29 17:25:54 2024
***** Estimated time to completion:  0 sec.

***** Problem read in and set up time: 0.00215101 seconds
 ***** DCOP time: 0.000564814 seconds.  Breakdown follows:
	Number Successful Steps Taken:		1
	Number Failed Steps Attempted:		0
	Number Jacobians Evaluated:		3
	Number Linear Solves:			3
	Number Failed Linear Solves:		0
	Number Residual Evaluations:		5
	Number Nonlinear Convergence Failures:	0
	Total Residual Load Time:		5.10216e-05 seconds
	Total Jacobian Load Time:		1.19209e-05 seconds
	Total Linear Solution Time:		7.00951e-05 seconds

 ***** Transient Stepping time: 0.00123 seconds.  Breakdown follows:
	Number Successful Steps Taken:		14
	Number Failed Steps Attempted:		0
	Number Jacobians Evaluated:		14
	Number Linear Solves:			14
	Number Failed Linear Solves:		0
	Number Residual Evaluations:		28
	Number Nonlinear Convergence Failures:	0
	Total Residual Load Time:		0.000219822 seconds
	Total Jacobian Load Time:		4.41074e-05 seconds
	Total Linear Solution Time:		6.7234e-05 seconds


***** Solution Summary *****
	Number Successful Steps Taken:		15
	Number Failed Steps Attempted:		0
	Number Jacobians Evaluated:		17
	Number Linear Solves:			17
	Number Failed Linear Solves:		0
	Number Residual Evaluations:		33
	Number Nonlinear Convergence Failures:	0
	Total Residual Load Time:		0.000270844 seconds
	Total Jacobian Load Time:		5.60284e-05 seconds
	Total Linear Solution Time:		0.000137329 seconds


***** Total Simulation Solvers Run Time: 0.00206304 seconds
***** Total Elapsed Run Time:            0.00421095 seconds
*****
***** End of Xyce(TM) Simulation
*****

Timing summary of 1 processor
                 Stats                   Count       CPU Time              Wall Time
---------------------------------------- ----- --------------------- ---------------------
Xyce                                         1        0.007 (100.0%)        0.007 (100.0%)
  Analysis                                   1        0.002 (28.15%)        0.002 (28.16%)
    Transient                                1        0.002 (28.03%)        0.002 (28.04%)
      Nonlinear Solve                       15        0.001 (11.93%)        0.001 (11.82%)
        Residual                            33        0.000 ( 4.15%)        0.000 ( 4.01%)
        Jacobian                            17        0.000 ( 0.87%)        0.000 ( 0.86%)
        Linear Solve                        17        0.000 ( 1.99%)        0.000 ( 2.00%)
      Successful DCOP Steps                  1        0.000 ( 2.38%)        0.000 ( 2.38%)
      Successful Step                       14        0.000 ( 3.80%)        0.000 ( 3.82%)
  Netlist Import                             1        0.001 (12.80%)        0.001 (12.79%)
    Parse Context                            1        0.000 ( 2.03%)        0.000 ( 2.04%)
    Distribute Devices                       1        0.000 ( 1.94%)        0.000 ( 1.94%)
    Verify Devices                           1        0.000 ( 0.09%)        0.000 ( 0.08%)
    Instantiate                              1        0.000 ( 2.96%)        0.000 ( 2.97%)
  Late Initialization                        1        0.001 ( 9.29%)        0.001 ( 9.29%)
    Global Indices                           1        0.000 ( 1.84%)        0.000 ( 1.86%)
  Setup Matrix Structure                     1        0.000 ( 1.86%)        0.000 ( 1.86%)

