
*****
***** Welcome to the Xyce(TM) Parallel Electronic Simulator
*****
***** This is version Xyce DEVELOPMENT-202306010240-(Public_Release-7.6.0-225-g0f7f3e36)-opensource
***** Date: Thu Dec 07 21:14:58 UTC 2023


***** Executing netlist ./MFlibrary_testing/stdcellTesting/membrane_cap/mem_cap_test_1_4.cir

***** Reading and parsing netlist...
***** Setting up topology...

Netlist warning: Voltage Node (17) connected to only 1 device Terminal
Netlist warning: Voltage Node (201) connected to only 1 device Terminal
Netlist warning: Voltage Node (14) connected to only 1 device Terminal
Netlist warning: Voltage Node (16) connected to only 1 device Terminal
Netlist warning: Voltage Node (15) connected to only 1 device Terminal
Netlist warning: Voltage Node (12) connected to only 1 device Terminal
Netlist warning: Voltage Node (18) connected to only 1 device Terminal
Netlist warning: Voltage Node (13) connected to only 1 device Terminal
Netlist warning: Voltage Node (102) connected to only 1 device Terminal
Netlist warning: Voltage Node (17) does not have a DC path to ground
Netlist warning: Voltage Node (14) does not have a DC path to ground
Netlist warning: Voltage Node (16) does not have a DC path to ground
Netlist warning: Voltage Node (15) does not have a DC path to ground
Netlist warning: Voltage Node (12) does not have a DC path to ground
Netlist warning: Voltage Node (18) does not have a DC path to ground
Netlist warning: Voltage Node (13) does not have a DC path to ground
Netlist warning: Voltage Node (201) does not have a DC path to ground
***** Device Count Summary ...
       SERPENTINE_100PX_0 level 1 (ADMS serpentine_100px_0)  5
       V level 1 (Independent Voltage Source)                6
       VALVE_20PX_1 level 1 (ADMS valve_20px_1)              2
       -------------------------------------------------------
       Total Devices                                        13
***** Setting up matrix structure...
***** Number of Unknowns = 32
***** Initializing...

***** Beginning DC Operating Point Calculation...

Netlist warning: Numerically singular matrix found by Amesos, returning zero
 solution to nonlinear solver!
Netlist warning: Numerically singular matrix found by Amesos, returning zero
 solution to nonlinear solver!
Netlist warning: Numerically singular matrix found by Amesos, returning zero
 solution to nonlinear solver!
DC Operating Point Failed.  Exiting transient loop

***** Solution Summary *****
	Number Successful Steps Taken:		0
	Number Failed Steps Attempted:		1
	Number Jacobians Evaluated:		3
	Number Linear Solves:			3
	Number Failed Linear Solves:		3
	Number Residual Evaluations:		11
	Number Nonlinear Convergence Failures:	1
	Total Residual Load Time:		0.000105858 seconds
	Total Jacobian Load Time:		1.3113e-05 seconds
	Total Linear Solution Time:		0.000102043 seconds


***** Total Simulation Solvers Run Time: 0.00115895 seconds
***** Total Elapsed Run Time:            0.00356197 seconds
*****
***** End of Xyce(TM) Simulation
*****

Timing summary of 1 processor
                 Stats                   Count       CPU Time              Wall Time
---------------------------------------- ----- --------------------- ---------------------
Xyce                                         1        0.007 (100.0%)        0.007 (100.0%)
  Analysis                                   1        0.001 (16.20%)        0.001 (16.21%)
    Transient                                1        0.001 (16.07%)        0.001 (16.07%)
      Nonlinear Solve                        1        0.001 (15.07%)        0.001 (15.06%)
        Residual                            11        0.000 ( 1.67%)        0.000 ( 1.64%)
        Jacobian                             3        0.000 ( 0.22%)        0.000 ( 0.23%)
        Linear Solve                         3        0.000 ( 1.57%)        0.000 ( 1.57%)
      Failed DCOP Steps                      1        0.000 ( 0.15%)        0.000 ( 0.13%)
  Netlist Import                             1        0.001 (14.95%)        0.001 (14.95%)
    Parse Context                            1        0.000 ( 2.10%)        0.000 ( 2.11%)
    Distribute Devices                       1        0.000 ( 3.14%)        0.000 ( 3.14%)
    Verify Devices                           1        0.000 ( 0.31%)        0.000 ( 0.31%)
    Instantiate                              1        0.000 ( 2.74%)        0.000 ( 2.74%)
  Late Initialization                        1        0.001 (11.65%)        0.001 (11.67%)
    Global Indices                           1        0.000 ( 2.35%)        0.000 ( 2.35%)
  Setup Matrix Structure                     1        0.000 ( 2.27%)        0.000 ( 2.28%)

