
*****
***** Welcome to the Xyce(TM) Parallel Electronic Simulator
*****
***** This is version Xyce DEVELOPMENT-202306010240-(Public_Release-7.6.0-225-g0f7f3e36)-opensource
***** Date: Wed Dec 06 20:27:04 UTC 2023


***** Executing netlist ./MFlibrary_testing/pumpTesting/PressurePump_test_1.cir

***** Reading and parsing netlist...
***** Setting up topology...

Netlist warning: Voltage Node (3) connected to only 1 device Terminal
Netlist warning: Voltage Node (3) does not have a DC path to ground
***** Device Count Summary ...
       CHANNEL level 1 (ADMS channel)           1
       PRESSUREPUMP level 1 (ADMS pressurePump) 1
       ------------------------------------------
       Total Devices                            2
***** Setting up matrix structure...
***** Number of Unknowns = 6
***** Initializing...

***** Beginning DC Operating Point Calculation...

***** Beginning Transient Calculation...

***** Percent complete: 1.5 %
***** Current system time: Wed Dec  6 20:27:04 2023
***** Estimated time to completion:  0 sec.

***** Percent complete: 3.5 %
***** Current system time: Wed Dec  6 20:27:04 2023
***** Estimated time to completion:  0 sec.

***** Percent complete: 7.5 %
***** Current system time: Wed Dec  6 20:27:04 2023
***** Estimated time to completion:  0 sec.

***** Percent complete: 15.5 %
***** Current system time: Wed Dec  6 20:27:04 2023
***** Estimated time to completion:  0 sec.

***** Percent complete: 25.5 %
***** Current system time: Wed Dec  6 20:27:04 2023
***** Estimated time to completion:  0 sec.

***** Percent complete: 35.5 %
***** Current system time: Wed Dec  6 20:27:04 2023
***** Estimated time to completion:  0 sec.

***** Percent complete: 45.5 %
***** Current system time: Wed Dec  6 20:27:04 2023
***** Estimated time to completion:  0 sec.

***** Percent complete: 55.5 %
***** Current system time: Wed Dec  6 20:27:04 2023
***** Estimated time to completion:  0 sec.

***** Percent complete: 65.5 %
***** Current system time: Wed Dec  6 20:27:04 2023
***** Estimated time to completion:  0 sec.

***** Percent complete: 75.5 %
***** Current system time: Wed Dec  6 20:27:04 2023
***** Estimated time to completion:  0 sec.

***** Percent complete: 85.5 %
***** Current system time: Wed Dec  6 20:27:04 2023
***** Estimated time to completion:  0 sec.

***** Percent complete: 95.5 %
***** Current system time: Wed Dec  6 20:27:04 2023
***** Estimated time to completion:  0 sec.

***** Problem read in and set up time: 0.00186086 seconds
 ***** DCOP time: 0.000453949 seconds.  Breakdown follows:
	Number Successful Steps Taken:		1
	Number Failed Steps Attempted:		0
	Number Jacobians Evaluated:		2
	Number Linear Solves:			2
	Number Failed Linear Solves:		0
	Number Residual Evaluations:		4
	Number Nonlinear Convergence Failures:	0
	Total Residual Load Time:		2.7895e-05 seconds
	Total Jacobian Load Time:		7.15256e-06 seconds
	Total Linear Solution Time:		4.98295e-05 seconds

 ***** Transient Stepping time: 0.000739098 seconds.  Breakdown follows:
	Number Successful Steps Taken:		14
	Number Failed Steps Attempted:		0
	Number Jacobians Evaluated:		14
	Number Linear Solves:			14
	Number Failed Linear Solves:		0
	Number Residual Evaluations:		28
	Number Nonlinear Convergence Failures:	0
	Total Residual Load Time:		9.67979e-05 seconds
	Total Jacobian Load Time:		2.71797e-05 seconds
	Total Linear Solution Time:		4.07696e-05 seconds


***** Solution Summary *****
	Number Successful Steps Taken:		15
	Number Failed Steps Attempted:		0
	Number Jacobians Evaluated:		16
	Number Linear Solves:			16
	Number Failed Linear Solves:		0
	Number Residual Evaluations:		32
	Number Nonlinear Convergence Failures:	0
	Total Residual Load Time:		0.000124693 seconds
	Total Jacobian Load Time:		3.43323e-05 seconds
	Total Linear Solution Time:		9.05991e-05 seconds


***** Total Simulation Solvers Run Time: 0.00133586 seconds
***** Total Elapsed Run Time:            0.00319195 seconds
*****
***** End of Xyce(TM) Simulation
*****

Timing summary of 1 processor
                 Stats                   Count       CPU Time              Wall Time
---------------------------------------- ----- --------------------- ---------------------
Xyce                                         1        0.004 (100.0%)        0.006 (100.0%)
  Analysis                                   1        0.000 ( 0.00%)        0.001 (20.31%)
    Transient                                1        0.000 ( 0.00%)        0.001 (20.20%)
      Nonlinear Solve                       15        0.000 ( 0.00%)        0.001 ( 8.83%)
        Residual                            32        0.000 ( 0.00%)        0.000 ( 2.16%)
        Jacobian                            16        0.000 ( 0.00%)        0.000 ( 0.61%)
        Linear Solve                        16        0.000 ( 0.00%)        0.000 ( 1.47%)
      Successful DCOP Steps                  1        0.000 ( 0.00%)        0.000 ( 2.08%)
      Successful Step                       14        0.000 ( 0.00%)        0.000 ( 3.04%)
  Netlist Import                             1        0.000 ( 4.97%)        0.001 (11.72%)
    Parse Context                            1        0.000 ( 2.92%)        0.000 ( 1.81%)
    Distribute Devices                       1        0.000 ( 0.00%)        0.000 ( 1.59%)
    Verify Devices                           1        0.000 ( 0.00%)        0.000 ( 0.08%)
    Instantiate                              1        0.000 ( 0.00%)        0.000 ( 1.17%)
  Late Initialization                        1        0.000 ( 0.00%)        0.001 ( 8.33%)
    Global Indices                           1        0.000 ( 0.00%)        0.000 ( 0.72%)
  Setup Matrix Structure                     1        0.000 ( 0.00%)        0.000 ( 1.86%)

