 ****** HSPICE -- Q-2020.03-2 linux64 (Apr 27 2020) ******                      
  Copyright (c) 1986 - 2022 by Synopsys, Inc. All Rights Reserved.              
  This software and the associated documentation are proprietary
  to Synopsys, Inc. This software may only be used in accordance
  with the terms and conditions of a written license agreement with
  Synopsys, Inc. All other use, reproduction, or distribution of
  this software is strictly prohibited.
  Input File: TJunctionFlowTest.sp                                              
  Command line options: /uusoc/facility/cad_tools/Synopsys/hspice_Q-2020.03-2/hspice/linux64/hspice TJunctionFlowTest.sp -o flowTest/TJunctionFlowTest_o
  Start time: Tue Aug 30 11:38:48 2022
 lic:  
 lic: FLEXlm: SDK_12.6 
 lic: USER:   u1146591             HOSTNAME: lab2-2.eng.utah.edu 
 lic: HOSTID: 18c04d8fca54         PID:      998076 
 lic: Using FLEXlm license file: 
 lic: 27000@chickasaw.eng.utah.edu 
 lic: Checkout 1 hspice 
 lic: License/Maintenance for hspice will expire on 14-mar-2024/2021.09 
 lic: 1(in_use)/50(total) FLOATING license(s) on SERVER 27000@chickasaw.eng.utah.edu 
 lic:   
 **info** *pvaI* current limit stacksize=8388608, set new limit stacksize=62914560

 **info** *pvaI* Module (TJunction): 6 unexpanded port, 7 init, 2 behav, 2 contrib, 25/0 expr(s)

 **warning** *pvaW*        node 'fl_1' grounded by current reference 'Q(fl_1)' (../../MFlibrary/TJunction.va:82)

 **warning** *pvaW*        node 'fl_2' grounded by current reference 'Q(fl_2)' (../../MFlibrary/TJunction.va:82)

 **warning** *pvaW*        node 'c_1' grounded by current reference 'C(c_1)' (../../MFlibrary/TJunction.va:102)

 **warning** *pvaW*        node 'fl_1' grounded by current reference 'Q(fl_1)' (../../MFlibrary/TJunction.va:102)

 **warning** *pvaW*        node 'c_2' grounded by current reference 'C(c_2)' (../../MFlibrary/TJunction.va:102)

 **error** *pvaE* undefined access function 'Q(_pvaObj0__)' (../../MFlibrary/TJunction.va:82) 


          ***** job aborted
1****** HSPICE -- Q-2020.03-2 linux64 (Apr 27 2020) ******                      
 ******  
 

 ****** job statistics summary tnom=  25.000 temp=  25.000 ******
  
 ******  Machine Information  ******
 CPU:
 model name	: Intel(R) Core(TM) i7-10700 CPU @ 2.90GHz
 cpu MHz	: 2900.000
  
 OS:
 Linux version 4.18.0-372.19.1.el8_6.x86_64 (mockbuild@x86-vm-07.build.eng.bos.redhat.com) (gcc version 8.5.0 20210514 (Red Hat 8.5.0-10) (GCC)) #1 SMP Mon Jul 18 11:14:02 EDT 2022


  ******  HSPICE Threads Information  ******

  Command Line Threads Count :     1
  Available CPU Count        :    16
  Actual Threads Count       :     1


  ******  Circuit Statistics  ******
  # nodes       =       0 # elements   =       0
  # resistors   =       0 # capacitors =       0 # inductors   =       0
  # mutual_inds =       0 # vccs       =       0 # vcvs        =       0
  # cccs        =       0 # ccvs       =       0 # volt_srcs   =       0
  # curr_srcs   =       0 # diodes     =       0 # bjts        =       0
  # jfets       =       0 # mosfets    =       0 # U elements  =       0
  # T elements  =       0 # W elements =       0 # B elements  =       0
  # S elements  =       0 # P elements =       0 # va device   =       0
  # vector_srcs =       0 # N elements =       0


  ******  Runtime Statistics (seconds)  ******

  analysis           time    # points   tot. iter  conv.iter
  op point           0.00           1           0
  readin             0.01
  errchk             0.00
  setup              0.00
  output             0.00


           peak memory used        426.54 megabytes
           total cpu time            0.08 seconds
           total elapsed time        0.23 seconds
           job started at     11:38:48 08/30/2022
           job ended   at     11:38:48 08/30/2022
           job total runtime         0.23 seconds


 lic: Release hspice token(s) 
 lic: total license checkout elapse time:        0.11(s)
