
*****
***** Welcome to the Xyce(TM) Parallel Electronic Simulator
*****
***** This is version Xyce DEVELOPMENT-202401292321-opensource
***** Date: Thu Feb 08 19:23:46 UTC 2024


***** Executing netlist ./MFlibrary_testing/pCellTesting/channel_test.cir

***** Reading and parsing netlist...
***** Setting up topology...

Netlist warning: Voltage Node (3) connected to only 1 device Terminal
Netlist warning: Voltage Node (3) does not have a DC path to ground
***** Device Count Summary ...
       CHANNEL level 1 (ADMS channel)           1
       PRESSUREPUMP level 1 (ADMS pressurePump) 1
       ------------------------------------------
       Total Devices                            2
***** Setting up matrix structure...
***** Number of Unknowns = 6
***** Initializing...

***** Beginning DC Operating Point Calculation...

***** Beginning Transient Calculation...

***** Percent complete: 1.5 %
***** Current system time: Thu Feb  8 19:23:46 2024
***** Estimated time to completion:  0 sec.

***** Percent complete: 3.5 %
***** Current system time: Thu Feb  8 19:23:46 2024
***** Estimated time to completion:  0 sec.

***** Percent complete: 7.5 %
***** Current system time: Thu Feb  8 19:23:46 2024
***** Estimated time to completion:  0 sec.

***** Percent complete: 15.5 %
***** Current system time: Thu Feb  8 19:23:46 2024
***** Estimated time to completion:  0 sec.

***** Percent complete: 25.5 %
***** Current system time: Thu Feb  8 19:23:46 2024
***** Estimated time to completion:  0 sec.

***** Percent complete: 35.5 %
***** Current system time: Thu Feb  8 19:23:46 2024
***** Estimated time to completion:  0 sec.

***** Percent complete: 45.5 %
***** Current system time: Thu Feb  8 19:23:46 2024
***** Estimated time to completion:  0 sec.

***** Percent complete: 55.5 %
***** Current system time: Thu Feb  8 19:23:46 2024
***** Estimated time to completion:  0 sec.

***** Percent complete: 65.5 %
***** Current system time: Thu Feb  8 19:23:46 2024
***** Estimated time to completion:  0 sec.

***** Percent complete: 75.5 %
***** Current system time: Thu Feb  8 19:23:46 2024
***** Estimated time to completion:  0 sec.

***** Percent complete: 85.5 %
***** Current system time: Thu Feb  8 19:23:46 2024
***** Estimated time to completion:  0 sec.

***** Percent complete: 95.5 %
***** Current system time: Thu Feb  8 19:23:46 2024
***** Estimated time to completion:  0 sec.

***** Problem read in and set up time: 0.00192285 seconds
 ***** DCOP time: 0.000504971 seconds.  Breakdown follows:
	Number Successful Steps Taken:		1
	Number Failed Steps Attempted:		0
	Number Jacobians Evaluated:		2
	Number Linear Solves:			2
	Number Failed Linear Solves:		0
	Number Residual Evaluations:		4
	Number Nonlinear Convergence Failures:	0
	Total Residual Load Time:		3.00407e-05 seconds
	Total Jacobian Load Time:		7.15256e-06 seconds
	Total Linear Solution Time:		5.126e-05 seconds

 ***** Transient Stepping time: 0.000853062 seconds.  Breakdown follows:
	Number Successful Steps Taken:		14
	Number Failed Steps Attempted:		0
	Number Jacobians Evaluated:		14
	Number Linear Solves:			14
	Number Failed Linear Solves:		0
	Number Residual Evaluations:		28
	Number Nonlinear Convergence Failures:	0
	Total Residual Load Time:		0.000114918 seconds
	Total Jacobian Load Time:		2.76566e-05 seconds
	Total Linear Solution Time:		4.31538e-05 seconds


***** Solution Summary *****
	Number Successful Steps Taken:		15
	Number Failed Steps Attempted:		0
	Number Jacobians Evaluated:		16
	Number Linear Solves:			16
	Number Failed Linear Solves:		0
	Number Residual Evaluations:		32
	Number Nonlinear Convergence Failures:	0
	Total Residual Load Time:		0.000144958 seconds
	Total Jacobian Load Time:		3.48091e-05 seconds
	Total Linear Solution Time:		9.44138e-05 seconds


***** Total Simulation Solvers Run Time: 0.00156283 seconds
***** Total Elapsed Run Time:            0.00348091 seconds
*****
***** End of Xyce(TM) Simulation
*****

Timing summary of 1 processor
                 Stats                   Count       CPU Time              Wall Time
---------------------------------------- ----- --------------------- ---------------------
Xyce                                         1        0.007 (100.0%)        0.007 (100.0%)
  Analysis                                   1        0.002 (21.07%)        0.002 (21.08%)
    Transient                                1        0.001 (20.95%)        0.001 (20.97%)
      Nonlinear Solve                       15        0.001 ( 8.68%)        0.001 ( 8.68%)
        Residual                            32        0.000 ( 2.23%)        0.000 ( 2.23%)
        Jacobian                            16        0.000 ( 0.58%)        0.000 ( 0.59%)
        Linear Solve                        16        0.000 ( 1.42%)        0.000 ( 1.39%)
      Successful DCOP Steps                  1        0.000 ( 2.18%)        0.000 ( 2.18%)
      Successful Step                       14        0.000 ( 2.95%)        0.000 ( 3.00%)
  Netlist Import                             1        0.001 (10.37%)        0.001 (10.38%)
    Parse Context                            1        0.000 ( 1.71%)        0.000 ( 1.73%)
    Distribute Devices                       1        0.000 ( 1.54%)        0.000 ( 1.53%)
    Verify Devices                           1        0.000 ( 0.07%)        0.000 ( 0.08%)
    Instantiate                              1        0.000 ( 1.11%)        0.000 ( 1.11%)
  Late Initialization                        1        0.001 ( 7.67%)        0.001 ( 7.67%)
    Global Indices                           1        0.000 ( 0.66%)        0.000 ( 0.66%)
  Setup Matrix Structure                     1        0.000 ( 1.75%)        0.000 ( 1.76%)

