
*****
***** Welcome to the Xyce(TM) Parallel Electronic Simulator
*****
***** This is version Xyce DEVELOPMENT-202401290536-opensource
***** Date: Mon Jan 29 17:25:54 UTC 2024


***** Executing netlist ./MFlibrary_testing/pCellTesting/channel_test.cir

***** Reading and parsing netlist...
***** Setting up topology...

Netlist warning: Voltage Node (3) connected to only 1 device Terminal
Netlist warning: Voltage Node (3) does not have a DC path to ground
***** Device Count Summary ...
       CHANNEL level 1 (ADMS channel)           1
       PRESSUREPUMP level 1 (ADMS pressurePump) 1
       ------------------------------------------
       Total Devices                            2
***** Setting up matrix structure...
***** Number of Unknowns = 6
***** Initializing...

***** Beginning DC Operating Point Calculation...

***** Beginning Transient Calculation...

***** Percent complete: 1.5 %
***** Current system time: Mon Jan 29 17:25:54 2024
***** Estimated time to completion:  0 sec.

***** Percent complete: 3.5 %
***** Current system time: Mon Jan 29 17:25:54 2024
***** Estimated time to completion:  0 sec.

***** Percent complete: 7.5 %
***** Current system time: Mon Jan 29 17:25:54 2024
***** Estimated time to completion:  0 sec.

***** Percent complete: 15.5 %
***** Current system time: Mon Jan 29 17:25:54 2024
***** Estimated time to completion:  0 sec.

***** Percent complete: 25.5 %
***** Current system time: Mon Jan 29 17:25:54 2024
***** Estimated time to completion:  0 sec.

***** Percent complete: 35.5 %
***** Current system time: Mon Jan 29 17:25:54 2024
***** Estimated time to completion:  0 sec.

***** Percent complete: 45.5 %
***** Current system time: Mon Jan 29 17:25:54 2024
***** Estimated time to completion:  0 sec.

***** Percent complete: 55.5 %
***** Current system time: Mon Jan 29 17:25:54 2024
***** Estimated time to completion:  0 sec.

***** Percent complete: 65.5 %
***** Current system time: Mon Jan 29 17:25:54 2024
***** Estimated time to completion:  0 sec.

***** Percent complete: 75.5 %
***** Current system time: Mon Jan 29 17:25:54 2024
***** Estimated time to completion:  0 sec.

***** Percent complete: 85.5 %
***** Current system time: Mon Jan 29 17:25:54 2024
***** Estimated time to completion:  0 sec.

***** Percent complete: 95.5 %
***** Current system time: Mon Jan 29 17:25:54 2024
***** Estimated time to completion:  0 sec.

***** Problem read in and set up time: 0.00264502 seconds
 ***** DCOP time: 0.00068593 seconds.  Breakdown follows:
	Number Successful Steps Taken:		1
	Number Failed Steps Attempted:		0
	Number Jacobians Evaluated:		2
	Number Linear Solves:			2
	Number Failed Linear Solves:		0
	Number Residual Evaluations:		4
	Number Nonlinear Convergence Failures:	0
	Total Residual Load Time:		5.50747e-05 seconds
	Total Jacobian Load Time:		9.05991e-06 seconds
	Total Linear Solution Time:		7.10487e-05 seconds

 ***** Transient Stepping time: 0.00110292 seconds.  Breakdown follows:
	Number Successful Steps Taken:		14
	Number Failed Steps Attempted:		0
	Number Jacobians Evaluated:		14
	Number Linear Solves:			14
	Number Failed Linear Solves:		0
	Number Residual Evaluations:		28
	Number Nonlinear Convergence Failures:	0
	Total Residual Load Time:		0.000131369 seconds
	Total Jacobian Load Time:		2.98023e-05 seconds
	Total Linear Solution Time:		5.6982e-05 seconds


***** Solution Summary *****
	Number Successful Steps Taken:		15
	Number Failed Steps Attempted:		0
	Number Jacobians Evaluated:		16
	Number Linear Solves:			16
	Number Failed Linear Solves:		0
	Number Residual Evaluations:		32
	Number Nonlinear Convergence Failures:	0
	Total Residual Load Time:		0.000186443 seconds
	Total Jacobian Load Time:		3.88622e-05 seconds
	Total Linear Solution Time:		0.000128031 seconds


***** Total Simulation Solvers Run Time: 0.00204301 seconds
***** Total Elapsed Run Time:            0.00468206 seconds
*****
***** End of Xyce(TM) Simulation
*****

Timing summary of 1 processor
                 Stats                   Count       CPU Time              Wall Time
---------------------------------------- ----- --------------------- ---------------------
Xyce                                         1        0.005 (100.0%)        0.009 (100.0%)
  Analysis                                   1        0.002 (36.67%)        0.002 (22.96%)
    Transient                                1        0.002 (36.51%)        0.002 (22.82%)
      Nonlinear Solve                       15        0.001 (15.31%)        0.001 ( 9.45%)
        Residual                            32        0.000 ( 3.90%)        0.000 ( 2.40%)
        Jacobian                            16        0.000 ( 0.94%)        0.000 ( 0.57%)
        Linear Solve                        16        0.000 ( 2.49%)        0.000 ( 1.58%)
      Successful DCOP Steps                  1        0.000 ( 3.87%)        0.000 ( 2.38%)
      Successful Step                       14        0.000 ( 5.21%)        0.000 ( 3.23%)
  Netlist Import                             1        0.001 (11.43%)        0.001 (11.73%)
    Parse Context                            1        0.000 ( 1.94%)        0.000 ( 2.00%)
    Distribute Devices                       1        0.000 ( 1.60%)        0.000 ( 1.65%)
    Verify Devices                           1        0.000 ( 0.08%)        0.000 ( 0.09%)
    Instantiate                              1        0.000 ( 1.11%)        0.000 ( 1.15%)
  Late Initialization                        1        0.000 ( 8.49%)        0.001 ( 8.72%)
    Global Indices                           1        0.000 ( 0.70%)        0.000 ( 0.73%)
  Setup Matrix Structure                     1        0.000 ( 1.87%)        0.000 ( 1.90%)

