
*****
***** Welcome to the Xyce(TM) Parallel Electronic Simulator
*****
***** This is version Xyce DEVELOPMENT-202306010240-(Public_Release-7.6.0-225-g0f7f3e36)-opensource
***** Date: Thu Dec 07 20:36:20 UTC 2023


***** Executing netlist ./MFlibrary_testing/pCellTesting/channel_test.cir

***** Reading and parsing netlist...
***** Setting up topology...

Netlist warning: Voltage Node (3) connected to only 1 device Terminal
Netlist warning: Voltage Node (3) does not have a DC path to ground
***** Device Count Summary ...
       CHANNEL level 1 (ADMS channel)           1
       PRESSUREPUMP level 1 (ADMS pressurePump) 1
       ------------------------------------------
       Total Devices                            2
***** Setting up matrix structure...
***** Number of Unknowns = 6
***** Initializing...

***** Beginning DC Operating Point Calculation...

***** Beginning Transient Calculation...

***** Percent complete: 1.5 %
***** Current system time: Thu Dec  7 20:36:20 2023
***** Estimated time to completion:  0 sec.

***** Percent complete: 3.5 %
***** Current system time: Thu Dec  7 20:36:20 2023
***** Estimated time to completion:  0 sec.

***** Percent complete: 7.5 %
***** Current system time: Thu Dec  7 20:36:20 2023
***** Estimated time to completion:  0 sec.

***** Percent complete: 15.5 %
***** Current system time: Thu Dec  7 20:36:20 2023
***** Estimated time to completion:  0 sec.

***** Percent complete: 25.5 %
***** Current system time: Thu Dec  7 20:36:20 2023
***** Estimated time to completion:  0 sec.

***** Percent complete: 35.5 %
***** Current system time: Thu Dec  7 20:36:20 2023
***** Estimated time to completion:  0 sec.

***** Percent complete: 45.5 %
***** Current system time: Thu Dec  7 20:36:20 2023
***** Estimated time to completion:  0 sec.

***** Percent complete: 55.5 %
***** Current system time: Thu Dec  7 20:36:20 2023
***** Estimated time to completion:  0 sec.

***** Percent complete: 65.5 %
***** Current system time: Thu Dec  7 20:36:20 2023
***** Estimated time to completion:  0 sec.

***** Percent complete: 75.5 %
***** Current system time: Thu Dec  7 20:36:20 2023
***** Estimated time to completion:  0 sec.

***** Percent complete: 85.5 %
***** Current system time: Thu Dec  7 20:36:20 2023
***** Estimated time to completion:  0 sec.

***** Percent complete: 95.5 %
***** Current system time: Thu Dec  7 20:36:20 2023
***** Estimated time to completion:  0 sec.

***** Problem read in and set up time: 0.00211787 seconds
 ***** DCOP time: 0.000636101 seconds.  Breakdown follows:
	Number Successful Steps Taken:		1
	Number Failed Steps Attempted:		0
	Number Jacobians Evaluated:		2
	Number Linear Solves:			2
	Number Failed Linear Solves:		0
	Number Residual Evaluations:		4
	Number Nonlinear Convergence Failures:	0
	Total Residual Load Time:		5.79357e-05 seconds
	Total Jacobian Load Time:		7.15256e-06 seconds
	Total Linear Solution Time:		7.20024e-05 seconds

 ***** Transient Stepping time: 0.00100207 seconds.  Breakdown follows:
	Number Successful Steps Taken:		14
	Number Failed Steps Attempted:		0
	Number Jacobians Evaluated:		14
	Number Linear Solves:			14
	Number Failed Linear Solves:		0
	Number Residual Evaluations:		28
	Number Nonlinear Convergence Failures:	0
	Total Residual Load Time:		0.000120163 seconds
	Total Jacobian Load Time:		2.95639e-05 seconds
	Total Linear Solution Time:		4.48227e-05 seconds


***** Solution Summary *****
	Number Successful Steps Taken:		15
	Number Failed Steps Attempted:		0
	Number Jacobians Evaluated:		16
	Number Linear Solves:			16
	Number Failed Linear Solves:		0
	Number Residual Evaluations:		32
	Number Nonlinear Convergence Failures:	0
	Total Residual Load Time:		0.000178099 seconds
	Total Jacobian Load Time:		3.67165e-05 seconds
	Total Linear Solution Time:		0.000116825 seconds


***** Total Simulation Solvers Run Time: 0.00182986 seconds
***** Total Elapsed Run Time:            0.00394201 seconds
*****
***** End of Xyce(TM) Simulation
*****

Timing summary of 1 processor
                 Stats                   Count       CPU Time              Wall Time
---------------------------------------- ----- --------------------- ---------------------
Xyce                                         1        0.005 (100.0%)        0.007 (100.0%)
  Analysis                                   1        0.000 ( 0.00%)        0.002 (23.81%)
    Transient                                1        0.000 ( 0.00%)        0.002 (23.68%)
      Nonlinear Solve                       15        0.000 ( 0.00%)        0.001 (10.02%)
        Residual                            32        0.000 ( 0.00%)        0.000 ( 2.61%)
        Jacobian                            16        0.000 ( 0.00%)        0.000 ( 0.58%)
        Linear Solve                        16        0.000 ( 0.00%)        0.000 ( 1.67%)
      Successful DCOP Steps                  1        0.000 ( 0.00%)        0.000 ( 2.33%)
      Successful Step                       14        0.000 ( 0.00%)        0.000 ( 3.48%)
  Netlist Import                             1        0.001 (15.85%)        0.001 (10.67%)
    Parse Context                            1        0.000 ( 2.63%)        0.000 ( 1.77%)
    Distribute Devices                       1        0.000 ( 2.29%)        0.000 ( 1.55%)
    Verify Devices                           1        0.000 ( 0.10%)        0.000 ( 0.05%)
    Instantiate                              1        0.000 ( 1.71%)        0.000 ( 1.15%)
  Late Initialization                        1        0.000 ( 1.91%)        0.001 ( 9.05%)
    Global Indices                           1        0.000 ( 1.03%)        0.000 ( 0.70%)
  Setup Matrix Structure                     1        0.000 ( 0.00%)        0.000 ( 2.31%)

