
*****
***** Welcome to the Xyce(TM) Parallel Electronic Simulator
*****
***** This is version Xyce DEVELOPMENT-202401290536-opensource
***** Date: Fri Feb 02 00:31:24 UTC 2024


***** Executing netlist ./MFlibrary_testing/pCellTesting/channel_test.cir

***** Reading and parsing netlist...
***** Setting up topology...

Netlist warning: Voltage Node (3) connected to only 1 device Terminal
Netlist warning: Voltage Node (3) does not have a DC path to ground
***** Device Count Summary ...
       CHANNEL level 1 (ADMS channel)           1
       PRESSUREPUMP level 1 (ADMS pressurePump) 1
       ------------------------------------------
       Total Devices                            2
***** Setting up matrix structure...
***** Number of Unknowns = 6
***** Initializing...

***** Beginning DC Operating Point Calculation...

***** Beginning Transient Calculation...

***** Percent complete: 1.5 %
***** Current system time: Fri Feb  2 00:31:24 2024
***** Estimated time to completion:  0 sec.

***** Percent complete: 3.5 %
***** Current system time: Fri Feb  2 00:31:24 2024
***** Estimated time to completion:  0 sec.

***** Percent complete: 7.5 %
***** Current system time: Fri Feb  2 00:31:24 2024
***** Estimated time to completion:  0 sec.

***** Percent complete: 15.5 %
***** Current system time: Fri Feb  2 00:31:24 2024
***** Estimated time to completion:  0 sec.

***** Percent complete: 25.5 %
***** Current system time: Fri Feb  2 00:31:24 2024
***** Estimated time to completion:  0 sec.

***** Percent complete: 35.5 %
***** Current system time: Fri Feb  2 00:31:24 2024
***** Estimated time to completion:  0 sec.

***** Percent complete: 45.5 %
***** Current system time: Fri Feb  2 00:31:24 2024
***** Estimated time to completion:  0 sec.

***** Percent complete: 55.5 %
***** Current system time: Fri Feb  2 00:31:24 2024
***** Estimated time to completion:  0 sec.

***** Percent complete: 65.5 %
***** Current system time: Fri Feb  2 00:31:24 2024
***** Estimated time to completion:  0 sec.

***** Percent complete: 75.5 %
***** Current system time: Fri Feb  2 00:31:24 2024
***** Estimated time to completion:  0 sec.

***** Percent complete: 85.5 %
***** Current system time: Fri Feb  2 00:31:24 2024
***** Estimated time to completion:  0 sec.

***** Percent complete: 95.5 %
***** Current system time: Fri Feb  2 00:31:24 2024
***** Estimated time to completion:  0 sec.

***** Problem read in and set up time: 0.00221682 seconds
 ***** DCOP time: 0.000516891 seconds.  Breakdown follows:
	Number Successful Steps Taken:		1
	Number Failed Steps Attempted:		0
	Number Jacobians Evaluated:		2
	Number Linear Solves:			2
	Number Failed Linear Solves:		0
	Number Residual Evaluations:		4
	Number Nonlinear Convergence Failures:	0
	Total Residual Load Time:		2.76566e-05 seconds
	Total Jacobian Load Time:		6.91414e-06 seconds
	Total Linear Solution Time:		6.19888e-05 seconds

 ***** Transient Stepping time: 0.00077796 seconds.  Breakdown follows:
	Number Successful Steps Taken:		14
	Number Failed Steps Attempted:		0
	Number Jacobians Evaluated:		14
	Number Linear Solves:			14
	Number Failed Linear Solves:		0
	Number Residual Evaluations:		28
	Number Nonlinear Convergence Failures:	0
	Total Residual Load Time:		0.000102282 seconds
	Total Jacobian Load Time:		2.38419e-05 seconds
	Total Linear Solution Time:		3.98159e-05 seconds


***** Solution Summary *****
	Number Successful Steps Taken:		15
	Number Failed Steps Attempted:		0
	Number Jacobians Evaluated:		16
	Number Linear Solves:			16
	Number Failed Linear Solves:		0
	Number Residual Evaluations:		32
	Number Nonlinear Convergence Failures:	0
	Total Residual Load Time:		0.000129938 seconds
	Total Jacobian Load Time:		3.0756e-05 seconds
	Total Linear Solution Time:		0.000101805 seconds


***** Total Simulation Solvers Run Time: 0.00146008 seconds
***** Total Elapsed Run Time:            0.00367093 seconds
*****
***** End of Xyce(TM) Simulation
*****

Timing summary of 1 processor
                 Stats                   Count       CPU Time              Wall Time
---------------------------------------- ----- --------------------- ---------------------
Xyce                                         1        0.004 (100.0%)        0.007 (100.0%)
  Analysis                                   1        0.001 (30.41%)        0.001 (19.77%)
    Transient                                1        0.001 (30.22%)        0.001 (19.64%)
      Nonlinear Solve                       15        0.000 (12.95%)        0.001 ( 8.31%)
        Residual                            32        0.000 ( 3.06%)        0.000 ( 2.03%)
        Jacobian                            16        0.000 ( 0.78%)        0.000 ( 0.55%)
        Linear Solve                        16        0.000 ( 2.23%)        0.000 ( 1.53%)
      Successful DCOP Steps                  1        0.000 ( 3.33%)        0.000 ( 2.17%)
      Successful Step                       14        0.000 ( 4.08%)        0.000 ( 2.70%)
  Netlist Import                             1        0.001 (17.89%)        0.001 (11.62%)
    Parse Context                            1        0.000 ( 2.85%)        0.000 ( 1.84%)
    Distribute Devices                       1        0.000 ( 2.31%)        0.000 ( 1.50%)
    Verify Devices                           1        0.000 ( 0.13%)        0.000 ( 0.08%)
    Instantiate                              1        0.000 ( 2.07%)        0.000 ( 1.37%)
  Late Initialization                        1        0.000 (12.19%)        0.001 ( 7.94%)
    Global Indices                           1        0.000 ( 1.05%)        0.000 ( 0.68%)
  Setup Matrix Structure                     1        0.000 ( 3.14%)        0.000 ( 2.05%)

